
##########                                Name:    ZINC000770814339
##########                DOCK_Rotatable_Bonds:                  13
##########                         Heavy_Atoms:                  28
##########                    Molecular_Weight:             409.423
##########                DOCK_Rotatable_Bonds:                  13
##########                       Formal_Charge:          -0.0100008
##########                     HBond_Acceptors:                  12
##########                        HBond_Donors:                   4
##########                         Heavy_Atoms:                  28
##########                          Grid_Score:          -42.413719
##########                     Grid_vdw_energy:          -41.918114
##########                      Grid_es_energy:           -0.495604
##########           Internal_energy_repulsive:           12.383455

@<TRIPOS>MOLECULE
ZINC000770814339
 47 48 1 0 0
SMALL
USER_CHARGES


@<TRIPOS>ATOM
      1 C1         -7.8664    3.6039   57.7864 C.3     1  ZINC000770814339   -0.1500
      2 C2         -8.7766    4.8120   58.0165 C.3     1  ZINC000770814339    0.0600
      3 O3         -9.5760    4.5955   59.2092 O.3     1  ZINC000770814339   -0.3500
      4 C4         -8.9466    4.6938   60.3907 C.2     1  ZINC000770814339    0.4700
      5 O5         -7.7721    4.9746   60.4281 O.2     1  ZINC000770814339   -0.4800
      6 C6         -9.7051    4.4539   61.6707 C.3     1  ZINC000770814339    0.0700
      7 O7         -9.5309    3.0959   62.0801 O.3     1  ZINC000770814339   -0.1800
      8 N8        -10.0265    2.1469   61.1534 N.2     1  ZINC000770814339   -0.2800
      9 C9         -9.9438    0.8736   61.4177 C.2     1  ZINC000770814339    0.1800
     10 C10       -10.4641   -0.1198   60.4486 C.2     1  ZINC000770814339    0.5900
     11 O11       -10.8073    0.2363   59.3388 O.2     1  ZINC000770814339   -0.5100
     12 N12       -10.5566   -1.4180   60.7985 N.am    1  ZINC000770814339   -0.7000
     13 C13       -11.0693   -2.4002   59.8401 C.3     1  ZINC000770814339    0.1500
     14 C14        -9.9338   -2.9179   58.9953 C.ar    1  ZINC000770814339   -0.0600
     15 C15       -10.1599   -3.2811   57.6808 C.ar    1  ZINC000770814339   -0.1200
     16 C16        -9.1183   -3.7559   56.9059 C.ar    1  ZINC000770814339   -0.0200
     17 C17        -7.8504   -3.8671   57.4454 C.ar    1  ZINC000770814339   -0.6700
     18 S18        -6.5228   -4.4728   56.4578 S.o2    1  ZINC000770814339    2.7000
     19 N19        -6.6584   -3.7652   54.9668 N.am    1  ZINC000770814339   -1.2500
     20 O20        -5.3283   -3.9647   57.0360 O.2     1  ZINC000770814339   -0.9600
     21 O21        -6.7651   -5.8600   56.2673 O.2     1  ZINC000770814339   -0.9600
     22 C22        -7.6239   -3.5025   58.7594 C.ar    1  ZINC000770814339   -0.0200
     23 C23        -8.6648   -3.0240   59.5331 C.ar    1  ZINC000770814339   -0.1200
     24 C24        -9.3319    0.4203   62.6827 C.2     1  ZINC000770814339    0.0600
     25 C25        -9.7065    0.7970   63.9545 C.2     1  ZINC000770814339   -0.2000
     26 C26        -8.8712    0.1372   64.8547 C.2     1  ZINC000770814339    0.0400
     27 N27        -8.0292   -0.6041   64.1799 N.2     1  ZINC000770814339   -0.2600
     28 N28        -8.2930   -0.4547   62.8128 N.pl3   1  ZINC000770814339   -0.4400
     29 H29        -7.2663    3.7664   56.8911 H       1  ZINC000770814339    0.0800
     30 H30        -7.2089    3.4754   58.6462 H       1  ZINC000770814339    0.0700
     31 H31        -8.4756    2.7092   57.6581 H       1  ZINC000770814339    0.0700
     32 H32        -8.1674    5.7067   58.1449 H       1  ZINC000770814339    0.0700
     33 H33        -9.4342    4.9405   57.1567 H       1  ZINC000770814339    0.0700
     34 H34        -9.3269    5.1189   62.4471 H       1  ZINC000770814339    0.1100
     35 H35       -10.7645    4.6512   61.5077 H       1  ZINC000770814339    0.1100
     36 H36       -10.2838   -1.7021   61.6850 H       1  ZINC000770814339    0.4100
     37 H37       -11.5281   -3.2289   60.3793 H       1  ZINC000770814339    0.0900
     38 H38       -11.8133   -1.9277   59.1986 H       1  ZINC000770814339    0.0900
     39 H39       -11.1505   -3.1943   57.2594 H       1  ZINC000770814339    0.1400
     40 H40        -9.2952   -4.0404   55.8792 H       1  ZINC000770814339    0.1500
     41 H41        -7.4583   -3.9028   54.4356 H       1  ZINC000770814339    0.4200
     42 H42        -5.9380   -3.2131   54.6247 H       1  ZINC000770814339    0.4200
     43 H43        -6.6333   -3.5889   59.1808 H       1  ZINC000770814339    0.1500
     44 H44        -8.4879   -2.7392   60.5598 H       1  ZINC000770814339    0.1400
     45 H45       -10.5033    1.4805   64.2081 H       1  ZINC000770814339    0.1700
     46 H46        -8.9117    0.2236   65.9304 H       1  ZINC000770814339    0.1900
     47 H47        -7.8185   -0.8907   62.0878 H       1  ZINC000770814339    0.4500
@<TRIPOS>BOND
     1     1     2    1
     2     1    29    1
     3     1    30    1
     4     1    31    1
     5     2     3    1
     6     2    32    1
     7     2    33    1
     8     3     4    1
     9     4     5    2
    10     4     6    1
    11     6     7    1
    12     6    34    1
    13     6    35    1
    14     7     8    1
    15     8     9    2
    16     9    10    1
    17     9    24    1
    18    10    11    2
    19    10    12   am
    20    12    13    1
    21    12    36    1
    22    13    14    1
    23    13    37    1
    24    13    38    1
    25    14    23   ar
    26    14    15   ar
    27    15    16   ar
    28    15    39    1
    29    16    17   ar
    30    16    40    1
    31    17    18    1
    32    17    22   ar
    33    18    19   am
    34    18    20    2
    35    18    21    2
    36    19    41    1
    37    19    42    1
    38    22    23   ar
    39    22    43    1
    40    23    44    1
    41    24    28    1
    42    24    25    2
    43    25    26    1
    44    25    45    1
    45    26    27    2
    46    26    46    1
    47    27    28    1
    48    28    47    1
@<TRIPOS>SUBSTRUCTURE
     1 ZINC000770814339        1 TEMP              0 ****  ****    0 ROOT


##########                                Name:    ZINC000505965769
##########                DOCK_Rotatable_Bonds:                   9
##########                         Heavy_Atoms:                  29
##########                    Molecular_Weight:              419.88
##########                DOCK_Rotatable_Bonds:                   9
##########                       Formal_Charge:               -0.02
##########                     HBond_Acceptors:                   7
##########                        HBond_Donors:                   1
##########                         Heavy_Atoms:                  29
##########                          Grid_Score:          -41.136528
##########                     Grid_vdw_energy:          -39.248615
##########                      Grid_es_energy:           -1.887915
##########           Internal_energy_repulsive:           44.319725

@<TRIPOS>MOLECULE
ZINC000505965769
 52 54 1 0 0
SMALL
USER_CHARGES


@<TRIPOS>ATOM
      1 C1         -6.1228   -3.6773   55.6945 C.3     1  ZINC000505965769    0.0200
      2 O2         -6.9828   -4.5880   56.3825 O.3     1  ZINC000505965769   -0.3100
      3 C3         -7.9366   -4.0492   57.1828 C.ar    1  ZINC000505965769    0.1800
      4 C4         -7.6127   -3.6521   58.4759 C.ar    1  ZINC000505965769   -0.2200
      5 C5         -8.5662   -3.1083   59.2885 C.ar    1  ZINC000505965769   -0.0200
      6 C6         -9.8767   -2.9483   58.8213 C.ar    1  ZINC000505965769   -0.2100
      7 C7        -10.9030   -2.3637   59.6925 C.2     1  ZINC000505965769    0.3900
      8 O8        -11.9384   -2.9622   59.8961 O.2     1  ZINC000505965769   -0.4400
      9 C9        -10.6706   -1.0201   60.3341 C.3     1  ZINC000505965769   -0.1500
     10 C10       -11.9578   -0.5507   61.0152 C.3     1  ZINC000505965769   -0.1300
     11 C11       -11.6348    0.5432   62.0001 C.2     1  ZINC000505965769    0.5200
     12 O12       -12.4589    0.8806   62.8234 O.2     1  ZINC000505965769   -0.5300
     13 N13       -10.4301    1.1466   61.9659 N.am    1  ZINC000505965769   -0.7200
     14 C14       -10.1156    2.2089   62.9244 C.3     1  ZINC000505965769    0.1900
     15 H15       -11.0359    2.5648   63.3874 H       1  ZINC000505965769    0.1100
     16 C16        -9.1945    1.6689   63.9881 C.ar    1  ZINC000505965769   -0.1000
     17 C17        -8.5553    2.5368   64.8538 C.ar    1  ZINC000505965769   -0.0900
     18 C18        -7.7105    2.0428   65.8295 C.ar    1  ZINC000505965769   -0.1500
     19 C19        -7.5047    0.6781   65.9402 C.ar    1  ZINC000505965769    0.1000
     20 F20        -6.6793    0.1941   66.8939 F       1  ZINC000505965769   -0.1400
     21 C21        -8.1457   -0.1902   65.0728 C.ar    1  ZINC000505965769   -0.1500
     22 C22        -8.9939    0.3058   64.1010 C.ar    1  ZINC000505965769   -0.0600
     23 C23        -9.4302    3.3666   62.1960 C.3     1  ZINC000505965769    0.0800
     24 H24        -8.5260    3.0170   61.6976 H       1  ZINC000505965769    0.0700
     25 C25       -10.3987    4.0039   61.1680 C.3     1  ZINC000505965769   -0.1500
     26 C26        -9.8079    5.4358   61.0547 C.3     1  ZINC000505965769   -0.1600
     27 C27        -9.2979    5.6942   62.4888 C.3     1  ZINC000505965769    0.0500
     28 O28        -9.1145    4.4201   63.1202 O.3     1  ZINC000505965769   -0.3700
     29 C29       -10.2044   -3.3483   57.5180 C.ar    1  ZINC000505965769    0.0500
     30 Cl30      -11.8256   -3.1547   56.9284 Cl      1  ZINC000505965769   -0.0200
     31 C31        -9.2327   -3.8909   56.7052 C.ar    1  ZINC000505965769   -0.1600
     32 H32        -5.5855   -3.0665   56.4200 H       1  ZINC000505965769    0.0600
     33 H33        -5.4084   -4.2376   55.0913 H       1  ZINC000505965769    0.1100
     34 H34        -6.7186   -3.0334   55.0475 H       1  ZINC000505965769    0.0600
     35 H35        -6.6030   -3.7745   58.8389 H       1  ZINC000505965769    0.1400
     36 H36        -8.3096   -2.8019   60.2918 H       1  ZINC000505965769    0.1500
     37 H37        -9.8768   -1.1043   61.0763 H       1  ZINC000505965769    0.1100
     38 H38       -10.3794   -0.2985   59.5709 H       1  ZINC000505965769    0.1100
     39 H39       -12.6489   -0.1701   60.2630 H       1  ZINC000505965769    0.1000
     40 H40       -12.4174   -1.3882   61.5401 H       1  ZINC000505965769    0.1000
     41 H41        -9.7715    0.8776   61.3066 H       1  ZINC000505965769    0.4000
     42 H42        -8.7160    3.6013   64.7672 H       1  ZINC000505965769    0.1300
     43 H43        -7.2107    2.7210   66.5053 H       1  ZINC000505965769    0.1400
     44 H44        -7.9856   -1.2549   65.1580 H       1  ZINC000505965769    0.1400
     45 H45        -9.4943   -0.3713   63.4245 H       1  ZINC000505965769    0.1400
     46 H46       -10.3541    3.4837   60.2113 H       1  ZINC000505965769    0.0700
     47 H47       -11.4184    4.0290   61.5523 H       1  ZINC000505965769    0.1000
     48 H48        -8.9852    5.4605   60.3401 H       1  ZINC000505965769    0.0700
     49 H49       -10.5812    6.1541   60.7827 H       1  ZINC000505965769    0.0800
     50 H50        -8.3480    6.2277   62.4528 H       1  ZINC000505965769    0.0700
     51 H51       -10.0317    6.2801   63.0422 H       1  ZINC000505965769    0.0700
     52 H52        -9.4798   -4.2003   55.7004 H       1  ZINC000505965769    0.1500
@<TRIPOS>BOND
     1     1     2    1
     2     1    32    1
     3     1    33    1
     4     1    34    1
     5     2     3    1
     6     3    31   ar
     7     3     4   ar
     8     4     5   ar
     9     4    35    1
    10     5     6   ar
    11     5    36    1
    12     6     7    1
    13     6    29   ar
    14     7     8    2
    15     7     9    1
    16     9    10    1
    17     9    37    1
    18     9    38    1
    19    10    11    1
    20    10    39    1
    21    10    40    1
    22    11    12    2
    23    11    13   am
    24    13    14    1
    25    13    41    1
    26    14    15    1
    27    14    16    1
    28    14    23    1
    29    16    22   ar
    30    16    17   ar
    31    17    18   ar
    32    17    42    1
    33    18    19   ar
    34    18    43    1
    35    19    20    1
    36    19    21   ar
    37    21    22   ar
    38    21    44    1
    39    22    45    1
    40    23    24    1
    41    23    28    1
    42    23    25    1
    43    25    26    1
    44    25    46    1
    45    25    47    1
    46    26    27    1
    47    26    48    1
    48    26    49    1
    49    27    28    1
    50    27    50    1
    51    27    51    1
    52    29    30    1
    53    29    31   ar
    54    31    52    1
@<TRIPOS>SUBSTRUCTURE
     1 ZINC000505965769        1 TEMP              0 ****  ****    0 ROOT


##########                                Name:    ZINC000428266315
##########                DOCK_Rotatable_Bonds:                  10
##########                         Heavy_Atoms:                  30
##########                    Molecular_Weight:             423.438
##########                DOCK_Rotatable_Bonds:                  10
##########                       Formal_Charge:          0.00999977
##########                     HBond_Acceptors:                  10
##########                        HBond_Donors:                   0
##########                         Heavy_Atoms:                  30
##########                          Grid_Score:          -40.730877
##########                     Grid_vdw_energy:          -38.828995
##########                      Grid_es_energy:           -1.901884
##########           Internal_energy_repulsive:           13.071280

@<TRIPOS>MOLECULE
ZINC000428266315
 54 56 1 0 0
SMALL
USER_CHARGES


@<TRIPOS>ATOM
      1 C1         -2.3399    2.2909   58.2838 C.3     1  ZINC000428266315   -0.1500
      2 C2         -3.0578    3.4034   57.5171 C.3     1  ZINC000428266315    0.0600
      3 O3         -4.4546    3.3634   57.8165 O.3     1  ZINC000428266315   -0.3700
      4 C4         -5.2073    4.4219   57.2207 C.3     1  ZINC000428266315    0.1800
      5 H5         -4.7402    5.3779   57.4575 H       1  ZINC000428266315    0.0900
      6 C6         -5.2402    4.2326   55.7028 C.3     1  ZINC000428266315   -0.1700
      7 C7         -6.6144    4.4030   57.7599 C.2     1  ZINC000428266315    0.1700
      8 N8         -7.3932    5.4318   57.9129 N.2     1  ZINC000428266315   -0.3500
      9 O9         -8.4625    5.0850   58.3684 O.3     1  ZINC000428266315    0.0800
     10 C10        -8.4676    3.7617   58.5548 C.2     1  ZINC000428266315    0.1900
     11 C11        -9.6038    2.9368   59.1024 C.3     1  ZINC000428266315    0.1500
     12 N12        -9.3762    2.6765   60.5301 N.3     1  ZINC000428266315   -0.5300
     13 C13        -8.9576    3.8995   61.2280 C.3     1  ZINC000428266315    0.0200
     14 C14       -10.5714    2.0959   61.1564 C.3     1  ZINC000428266315    0.1400
     15 C15       -10.9225    0.8031   60.4660 C.2     1  ZINC000428266315   -0.2300
     16 C16       -10.4957   -0.4307   60.8218 C.2     1  ZINC000428266315    0.0800
     17 N17       -11.0310   -1.3167   59.9560 N.pl3   1  ZINC000428266315   -0.3700
     18 C18       -10.8306   -2.7678   59.9734 C.3     1  ZINC000428266315    0.1700
     19 C19        -9.7280   -3.1341   59.0137 C.ar    1  ZINC000428266315   -0.0800
     20 C20       -10.0360   -3.5313   57.7260 C.ar    1  ZINC000428266315   -0.1000
     21 C21        -9.0246   -3.8674   56.8457 C.ar    1  ZINC000428266315   -0.0700
     22 C22        -7.7050   -3.8058   57.2529 C.ar    1  ZINC000428266315   -0.1700
     23 C23        -6.6024   -4.1727   56.2934 C.3     1  ZINC000428266315    0.5100
     24 F24        -6.9126   -3.6867   55.0187 F       1  ZINC000428266315   -0.1700
     25 F25        -5.3988   -3.6072   56.7279 F       1  ZINC000428266315   -0.1800
     26 F26        -6.4723   -5.5646   56.2428 F       1  ZINC000428266315   -0.1800
     27 C27        -7.3969   -3.4074   58.5403 C.ar    1  ZINC000428266315   -0.0700
     28 C28        -8.4081   -3.0676   59.4194 C.ar    1  ZINC000428266315   -0.0800
     29 N29       -11.8126   -0.6036   59.0377 N.2     1  ZINC000428266315   -0.2900
     30 C30       -11.7517    0.6659   59.3481 C.2     1  ZINC000428266315    0.0600
     31 N31        -7.2969    3.3174   58.1656 N.2     1  ZINC000428266315   -0.4600
     32 H32        -1.2745    2.3213   58.0554 H       1  ZINC000428266315    0.0700
     33 H33        -2.4863    2.4345   59.3542 H       1  ZINC000428266315    0.0600
     34 H34        -2.7474    1.3242   57.9878 H       1  ZINC000428266315    0.0600
     35 H35        -2.6503    4.3701   57.8131 H       1  ZINC000428266315    0.0500
     36 H36        -2.9115    3.2598   56.4466 H       1  ZINC000428266315    0.0500
     37 H37        -5.7072    3.2766   55.4659 H       1  ZINC000428266315    0.0700
     38 H38        -5.8143    5.0399   55.2483 H       1  ZINC000428266315    0.0700
     39 H39        -4.2224    4.2463   55.3128 H       1  ZINC000428266315    0.0700
     40 H40       -10.5405    3.4798   58.9768 H       1  ZINC000428266315    0.0800
     41 H41        -9.6577    1.9902   58.5646 H       1  ZINC000428266315    0.1200
     42 H42        -9.7347    4.6576   61.1304 H       1  ZINC000428266315    0.0400
     43 H43        -8.7960    3.6786   62.2831 H       1  ZINC000428266315    0.0800
     44 H44        -8.0316    4.2698   60.7883 H       1  ZINC000428266315    0.0600
     45 H45       -10.3717    1.9024   62.2104 H       1  ZINC000428266315    0.0500
     46 H46       -11.4041    2.7936   61.0664 H       1  ZINC000428266315    0.0900
     47 H47        -9.8434   -0.6646   61.6502 H       1  ZINC000428266315    0.1700
     48 H48       -10.5566   -3.0847   60.9797 H       1  ZINC000428266315    0.1000
     49 H49       -11.7530   -3.2655   59.6742 H       1  ZINC000428266315    0.1100
     50 H50       -11.0670   -3.5794   57.4078 H       1  ZINC000428266315    0.1300
     51 H51        -9.2653   -4.1783   55.8398 H       1  ZINC000428266315    0.1400
     52 H52        -6.3659   -3.3590   58.8584 H       1  ZINC000428266315    0.1400
     53 H53        -8.1674   -2.7563   60.4251 H       1  ZINC000428266315    0.1400
     54 H54       -12.2494    1.4699   58.8263 H       1  ZINC000428266315    0.1800
@<TRIPOS>BOND
     1     1     2    1
     2     1    32    1
     3     1    33    1
     4     1    34    1
     5     2     3    1
     6     2    35    1
     7     2    36    1
     8     3     4    1
     9     4     5    1
    10     4     6    1
    11     4     7    1
    12     6    37    1
    13     6    38    1
    14     6    39    1
    15     7    31    1
    16     7     8    2
    17     8     9    1
    18     9    10    1
    19    10    11    1
    20    10    31    2
    21    11    12    1
    22    11    40    1
    23    11    41    1
    24    12    13    1
    25    12    14    1
    26    13    42    1
    27    13    43    1
    28    13    44    1
    29    14    15    1
    30    14    45    1
    31    14    46    1
    32    15    30    1
    33    15    16    2
    34    16    17    1
    35    16    47    1
    36    17    18    1
    37    17    29    1
    38    18    19    1
    39    18    48    1
    40    18    49    1
    41    19    28   ar
    42    19    20   ar
    43    20    21   ar
    44    20    50    1
    45    21    22   ar
    46    21    51    1
    47    22    23    1
    48    22    27   ar
    49    23    24    1
    50    23    25    1
    51    23    26    1
    52    27    28   ar
    53    27    52    1
    54    28    53    1
    55    29    30    2
    56    30    54    1
@<TRIPOS>SUBSTRUCTURE
     1 ZINC000428266315        1 TEMP              0 ****  ****    0 ROOT


##########                                Name:    ZINC000937331732
##########                DOCK_Rotatable_Bonds:                   6
##########                         Heavy_Atoms:                  24
##########                    Molecular_Weight:              333.35
##########                DOCK_Rotatable_Bonds:                   6
##########                       Formal_Charge:          -0.0299999
##########                     HBond_Acceptors:                  10
##########                        HBond_Donors:                   1
##########                         Heavy_Atoms:                  24
##########                          Grid_Score:          -40.564915
##########                     Grid_vdw_energy:          -37.139694
##########                      Grid_es_energy:           -3.425220
##########           Internal_energy_repulsive:           24.480158

@<TRIPOS>MOLECULE
ZINC000937331732
 43 45 1 0 0
SMALL
USER_CHARGES


@<TRIPOS>ATOM
      1 C1        -12.8753   -2.6048   59.1737 C.3     1  ZINC000937331732    0.0600
      2 N2        -11.7908   -1.6361   59.3522 N.am    1  ZINC000937331732   -0.6100
      3 C3        -10.5164   -1.9982   59.1050 C.2     1  ZINC000937331732    0.5000
      4 O4         -9.6187   -1.1959   59.2512 O.2     1  ZINC000937331732   -0.5200
      5 C5        -10.2067   -3.4001   58.6468 C.3     1  ZINC000937331732    0.1500
      6 N6         -8.7891   -3.4952   58.2897 N.am    1  ZINC000937331732   -0.4400
      7 N7         -7.7013   -3.3574   59.1629 N.2     1  ZINC000937331732   -0.2800
      8 C8         -6.6136   -3.5058   58.4778 C.2     1  ZINC000937331732    0.2600
      9 N9         -6.9445   -3.7400   57.1654 N.am    1  ZINC000937331732   -0.5600
     10 C10        -5.9987   -3.9614   56.0688 C.3     1  ZINC000937331732    0.1000
     11 C11        -8.2885   -3.7374   57.0601 C.2     1  ZINC000937331732    0.6500
     12 O12        -8.9324   -3.9133   56.0411 O.2     1  ZINC000937331732   -0.5500
     13 C13       -12.0917   -0.2738   59.7992 C.3     1  ZINC000937331732    0.1300
     14 H14       -11.8695    0.4468   59.0121 H       1  ZINC000937331732    0.1200
     15 C15       -13.5726   -0.1577   60.2477 C.3     1  ZINC000937331732   -0.1500
     16 C16       -13.5008    1.0158   61.2564 C.3     1  ZINC000937331732    0.1000
     17 N17       -12.2148    0.8354   61.9543 N.am    1  ZINC000937331732   -0.6000
     18 C18       -11.9159    1.3015   63.1831 C.2     1  ZINC000937331732    0.6200
     19 O19       -12.7442    1.9307   63.8129 O.2     1  ZINC000937331732   -0.5400
     20 C20       -10.5846    1.0487   63.7635 C.2     1  ZINC000937331732    0.1400
     21 N21        -9.5825    0.4450   63.1604 N.2     1  ZINC000937331732   -0.4400
     22 C22        -8.5414    0.3969   63.9884 C.2     1  ZINC000937331732   -0.0300
     23 C23        -8.8958    0.9899   65.1547 C.2     1  ZINC000937331732   -0.0200
     24 N24       -10.1771    1.4062   65.0181 N.pl3   1  ZINC000937331732   -0.5200
     25 C25       -11.3090    0.0639   61.0857 C.3     1  ZINC000937331732    0.1000
     26 H26       -13.0392   -3.1428   60.1074 H       1  ZINC000937331732    0.0700
     27 H27       -13.7882   -2.0803   58.8915 H       1  ZINC000937331732    0.0800
     28 H28       -12.6054   -3.3120   58.3894 H       1  ZINC000937331732    0.0800
     29 H29       -10.4267   -4.1022   59.4510 H       1  ZINC000937331732    0.1300
     30 H30       -10.8175   -3.6413   57.7768 H       1  ZINC000937331732    0.1300
     31 H31        -5.6098   -3.4538   58.8731 H       1  ZINC000937331732    0.2300
     32 H32        -4.9796   -3.9121   56.4524 H       1  ZINC000937331732    0.1000
     33 H33        -6.1746   -4.9437   55.6301 H       1  ZINC000937331732    0.0800
     34 H34        -6.1381   -3.1934   55.3081 H       1  ZINC000937331732    0.0800
     35 H35       -14.2176    0.0904   59.4048 H       1  ZINC000937331732    0.0900
     36 H36       -13.9056   -1.0733   60.7365 H       1  ZINC000937331732    0.0800
     37 H37       -13.5162    1.9701   60.7299 H       1  ZINC000937331732    0.0800
     38 H38       -14.3278    0.9587   61.9641 H       1  ZINC000937331732    0.1100
     39 H39        -7.5786   -0.0400   63.7684 H       1  ZINC000937331732    0.1800
     40 H40        -8.2721    1.1109   66.0280 H       1  ZINC000937331732    0.1900
     41 H41       -10.7077    1.8664   65.6869 H       1  ZINC000937331732    0.4300
     42 H42       -11.0093   -0.8563   61.5869 H       1  ZINC000937331732    0.0800
     43 H43       -10.4294    0.6607   60.8444 H       1  ZINC000937331732    0.0800
@<TRIPOS>BOND
     1     1     2    1
     2     1    26    1
     3     1    27    1
     4     1    28    1
     5     2     3   am
     6     2    13    1
     7     3     4    2
     8     3     5    1
     9     5     6    1
    10     5    29    1
    11     5    30    1
    12     6    11   am
    13     6     7    1
    14     7     8    2
    15     8     9    1
    16     8    31    1
    17     9    10    1
    18     9    11   am
    19    10    32    1
    20    10    33    1
    21    10    34    1
    22    11    12    2
    23    13    14    1
    24    13    25    1
    25    13    15    1
    26    15    16    1
    27    15    35    1
    28    15    36    1
    29    16    17    1
    30    16    37    1
    31    16    38    1
    32    17    18   am
    33    17    25    1
    34    18    19    2
    35    18    20    1
    36    20    24    1
    37    20    21    2
    38    21    22    1
    39    22    23    2
    40    22    39    1
    41    23    24    1
    42    23    40    1
    43    24    41    1
    44    25    42    1
    45    25    43    1
@<TRIPOS>SUBSTRUCTURE
     1 ZINC000937331732        1 TEMP              0 ****  ****    0 ROOT


##########                                Name:    ZINC000284209281
##########                DOCK_Rotatable_Bonds:                   8
##########                         Heavy_Atoms:                  26
##########                    Molecular_Weight:             353.424
##########                DOCK_Rotatable_Bonds:                   8
##########                       Formal_Charge:          0.00999954
##########                     HBond_Acceptors:                   7
##########                        HBond_Donors:                   1
##########                         Heavy_Atoms:                  26
##########                          Grid_Score:          -40.289371
##########                     Grid_vdw_energy:          -37.572861
##########                      Grid_es_energy:           -2.716511
##########           Internal_energy_repulsive:           14.171192

@<TRIPOS>MOLECULE
ZINC000284209281
 49 51 1 0 0
SMALL
USER_CHARGES


@<TRIPOS>ATOM
      1 O1        -11.5279    0.3040   62.7675 O.2     1  <0>        -0.5100
      2 C2        -11.8261    0.8809   61.7424 C.2     1  <0>         0.5100
      3 N3        -11.5379    2.1894   61.5973 N.am    1  <0>        -0.7000
      4 C4        -10.8701    2.9168   62.6794 C.3     1  <0>         0.1200
      5 C5         -9.3616    2.6730   62.6030 C.3     1  <0>        -0.1000
      6 C6         -8.9558    1.6954   63.6756 C.ar    1  <0>        -0.0400
      7 C7         -8.9734    2.0613   65.0129 C.ar    1  <0>        -0.1700
      8 C8         -8.5944    1.1380   65.9688 C.ar    1  <0>         0.1000
      9 N9         -8.2192   -0.0773   65.6212 N.ar    1  <0>        -0.4900
     10 C10        -8.1902   -0.4600   64.3596 C.ar    1  <0>         0.1000
     11 C11        -8.5613    0.4070   63.3493 C.ar    1  <0>        -0.1700
     12 C12       -12.5073    0.1388   60.6384 C.2     1  <0>         0.5100
     13 O13       -13.7179    0.1506   60.5561 O.2     1  <0>        -0.5200
     14 N14       -11.7769   -0.5437   59.7343 N.am    1  <0>        -0.5800
     15 C15       -10.3090   -0.5761   59.8192 C.3     1  <0>         0.0800
     16 C16        -9.8498   -2.0368   59.7548 C.3     1  <0>         0.0400
     17 N17       -10.4170   -2.6727   58.5582 N.3     1  <0>        -0.5300
     18 C18        -9.8648   -4.0204   58.3664 C.3     1  <0>         0.1000
     19 C19        -8.4839   -3.9174   57.7719 C.ar    1  <0>         0.1300
     20 C20        -8.3317   -3.8936   56.3986 C.ar    1  <0>        -0.1500
     21 C21        -7.0568   -3.7981   55.8616 C.ar    1  <0>        -0.0700
     22 C22        -5.9784   -3.7300   56.7302 C.ar    1  <0>        -0.1700
     23 C23        -6.2082   -3.7593   58.0928 C.ar    1  <0>         0.1000
     24 N24        -7.4350   -3.8456   58.5682 N.ar    1  <0>        -0.4800
     25 C25       -11.8843   -2.7087   58.6187 C.3     1  <0>         0.0400
     26 C26       -12.4271   -1.2807   58.6401 C.3     1  <0>         0.1100
     27 H27       -11.7726    2.6495   60.7762 H       1  <0>         0.4100
     28 H28       -11.0714    3.9834   62.5786 H       1  <0>         0.0800
     29 H29       -11.2468    2.5653   63.6400 H       1  <0>         0.0800
     30 H30        -9.1087    2.2645   61.6246 H       1  <0>         0.0900
     31 H31        -8.8334    3.6150   62.7510 H       1  <0>         0.0900
     32 H32        -9.2791    3.0555   65.3038 H       1  <0>         0.1400
     33 H33        -8.6054    1.4152   67.0126 H       1  <0>         0.1600
     34 H34        -7.8768   -1.4638   64.1134 H       1  <0>         0.1600
     35 H35        -8.5359    0.0876   62.3179 H       1  <0>         0.1400
     36 H36        -9.8815   -0.0208   58.9844 H       1  <0>         0.0800
     37 H37        -9.9867   -0.1322   60.7612 H       1  <0>         0.1400
     38 H38        -8.7616   -2.0741   59.7054 H       1  <0>         0.0900
     39 H39       -10.1922   -2.5653   60.6446 H       1  <0>         0.0400
     40 H40        -9.8093   -4.5305   59.3281 H       1  <0>         0.0900
     41 H41       -10.5094   -4.5846   57.6925 H       1  <0>         0.0600
     42 H42        -9.1947   -3.9489   55.7518 H       1  <0>         0.1400
     43 H43        -6.9074   -3.7777   54.7922 H       1  <0>         0.1400
     44 H44        -4.9715   -3.6553   56.3469 H       1  <0>         0.1400
     45 H45        -5.3735   -3.7070   58.7761 H       1  <0>         0.1600
     46 H46       -12.2716   -3.2334   57.7453 H       1  <0>         0.1000
     47 H47       -12.1985   -3.2279   59.5242 H       1  <0>         0.0400
     48 H48       -13.5051   -1.3012   58.8001 H       1  <0>         0.1000
     49 H49       -12.2040   -0.7900   57.6928 H       1  <0>         0.0800
@<TRIPOS>BOND
     1     1     2    2
     2     2     3   am
     3     2    12    1
     4     3     4    1
     5     3    27    1
     6     4     5    1
     7     4    28    1
     8     4    29    1
     9     5     6    1
    10     5    30    1
    11     5    31    1
    12     6    11   ar
    13     6     7   ar
    14     7     8   ar
    15     7    32    1
    16     8     9   ar
    17     8    33    1
    18     9    10   ar
    19    10    11   ar
    20    10    34    1
    21    11    35    1
    22    12    13    2
    23    12    14   am
    24    14    26    1
    25    14    15    1
    26    15    16    1
    27    15    36    1
    28    15    37    1
    29    16    17    1
    30    16    38    1
    31    16    39    1
    32    17    18    1
    33    17    25    1
    34    18    19    1
    35    18    40    1
    36    18    41    1
    37    19    24   ar
    38    19    20   ar
    39    20    21   ar
    40    20    42    1
    41    21    22   ar
    42    21    43    1
    43    22    23   ar
    44    22    44    1
    45    23    24   ar
    46    23    45    1
    47    25    26    1
    48    25    46    1
    49    25    47    1
    50    26    48    1
    51    26    49    1
@<TRIPOS>SUBSTRUCTURE
     1 <0>         1 TEMP              0 ****  ****    0 ROOT


##########                                Name:    ZINC001207290212
##########                DOCK_Rotatable_Bonds:                   8
##########                         Heavy_Atoms:                  23
##########                    Molecular_Weight:             344.435
##########                DOCK_Rotatable_Bonds:                   8
##########                       Formal_Charge:               -0.03
##########                     HBond_Acceptors:                   9
##########                        HBond_Donors:                   2
##########                         Heavy_Atoms:                  23
##########                          Grid_Score:          -39.605778
##########                     Grid_vdw_energy:          -36.364666
##########                      Grid_es_energy:           -3.241113
##########           Internal_energy_repulsive:            8.346536

@<TRIPOS>MOLECULE
ZINC001207290212
 47 48 1 0 0
SMALL
USER_CHARGES


@<TRIPOS>ATOM
      1 C1         -7.3874    0.2093   65.7806 C.3     1  ZINC001207290212   -0.1500
      2 C2         -8.8613    0.6072   65.6783 C.3     1  ZINC001207290212   -0.6300
      3 S3         -9.2625    1.0033   63.9543 S.o2    1  ZINC001207290212    2.6100
      4 O4         -8.5973    2.1915   63.5478 O.2     1  ZINC001207290212   -0.9500
      5 O5         -9.2246   -0.1686   63.1515 O.2     1  ZINC001207290212   -0.9500
      6 N6        -10.8640    1.4232   63.9886 N.am    1  ZINC001207290212   -1.1100
      7 C7        -11.5459    1.8122   62.7517 C.3     1  ZINC001207290212    0.0900
      8 C8        -12.0618    0.5802   62.0537 C.2     1  ZINC001207290212    0.5100
      9 O9        -13.1846    0.1809   62.2791 O.2     1  ZINC001207290212   -0.5300
     10 N10       -11.2754   -0.0778   61.1790 N.am    1  ZINC001207290212   -0.7200
     11 C11       -11.7775   -1.2743   60.4991 C.3     1  ZINC001207290212    0.1400
     12 H12       -12.5778   -1.7316   61.0810 H       1  ZINC001207290212    0.1000
     13 C13       -10.6347   -2.2826   60.2778 C.3     1  ZINC001207290212    0.0200
     14 N14       -10.4845   -2.4541   58.8164 N.3     1  ZINC001207290212   -0.5100
     15 C15       -10.0929   -3.8307   58.4855 C.3     1  ZINC001207290212    0.1300
     16 C16        -8.6706   -3.8425   57.9877 C.2     1  ZINC001207290212    0.0000
     17 C17        -7.5684   -3.6573   58.7329 C.2     1  ZINC001207290212   -0.0700
     18 O18        -6.5098   -3.7449   57.9038 O.3     1  ZINC001207290212   -0.2000
     19 C19        -6.9756   -3.9812   56.6701 C.2     1  ZINC001207290212    0.1900
     20 C20        -6.1338   -4.1509   55.4317 C.3     1  ZINC001207290212   -0.0600
     21 N21        -8.2756   -4.0463   56.7185 N.2     1  ZINC001207290212   -0.4700
     22 C22       -11.8088   -2.1221   58.2315 C.3     1  ZINC001207290212    0.0400
     23 C23       -12.2819   -0.9149   59.0826 C.3     1  ZINC001207290212   -0.1000
     24 H24       -11.8200    0.0084   58.7327 H       1  ZINC001207290212    0.0900
     25 C25       -13.8072   -0.7987   59.0566 C.3     1  ZINC001207290212   -0.1400
     26 H26        -7.2025   -0.6637   65.1547 H       1  ZINC001207290212    0.0700
     27 H27        -6.7635    1.0369   65.4434 H       1  ZINC001207290212    0.0700
     28 H28        -7.1464   -0.0287   66.8166 H       1  ZINC001207290212    0.0800
     29 H29        -9.4852   -0.2205   66.0156 H       1  ZINC001207290212    0.1300
     30 H30        -9.0463    1.4802   66.3042 H       1  ZINC001207290212    0.1300
     31 H31       -11.3505    1.4117   64.8277 H       1  ZINC001207290212    0.4300
     32 H32       -12.3807    2.4717   62.9890 H       1  ZINC001207290212    0.1000
     33 H33       -10.8454    2.3331   62.0990 H       1  ZINC001207290212    0.1100
     34 H34       -10.3770    0.2409   60.9997 H       1  ZINC001207290212    0.4100
     35 H35        -9.7093   -1.8941   60.7031 H       1  ZINC001207290212    0.0800
     36 H36       -10.8869   -3.2371   60.7397 H       1  ZINC001207290212    0.0500
     37 H37       -10.1715   -4.4548   59.3757 H       1  ZINC001207290212    0.0600
     38 H38       -10.7526   -4.2196   57.7098 H       1  ZINC001207290212    0.1000
     39 H39        -7.5367   -3.4724   59.7965 H       1  ZINC001207290212    0.2100
     40 H40        -5.0801   -4.0514   55.6921 H       1  ZINC001207290212    0.0900
     41 H41        -6.3108   -5.1381   55.0045 H       1  ZINC001207290212    0.1000
     42 H42        -6.4018   -3.3862   54.7026 H       1  ZINC001207290212    0.1000
     43 H43       -11.7065   -1.8382   57.1841 H       1  ZINC001207290212    0.0900
     44 H44       -12.4976   -2.9601   58.3385 H       1  ZINC001207290212    0.0500
     45 H45       -14.2483   -1.7196   59.4381 H       1  ZINC001207290212    0.0600
     46 H46       -14.1185    0.0389   59.6808 H       1  ZINC001207290212    0.0600
     47 H47       -14.1415   -0.6326   58.0326 H       1  ZINC001207290212    0.0600
@<TRIPOS>BOND
     1     1     2    1
     2     1    26    1
     3     1    27    1
     4     1    28    1
     5     2     3    1
     6     2    29    1
     7     2    30    1
     8     3     4    2
     9     3     5    2
    10     3     6   am
    11     6     7    1
    12     6    31    1
    13     7     8    1
    14     7    32    1
    15     7    33    1
    16     8     9    2
    17     8    10   am
    18    10    11    1
    19    10    34    1
    20    11    12    1
    21    11    23    1
    22    11    13    1
    23    13    14    1
    24    13    35    1
    25    13    36    1
    26    14    15    1
    27    14    22    1
    28    15    16    1
    29    15    37    1
    30    15    38    1
    31    16    21    1
    32    16    17    2
    33    17    18    1
    34    17    39    1
    35    18    19    1
    36    19    20    1
    37    19    21    2
    38    20    40    1
    39    20    41    1
    40    20    42    1
    41    22    23    1
    42    22    43    1
    43    22    44    1
    44    23    24    1
    45    23    25    1
    46    25    45    1
    47    25    46    1
    48    25    47    1
@<TRIPOS>SUBSTRUCTURE
     1 ZINC001207290212        1 TEMP              0 ****  ****    0 ROOT


##########                                Name:    ZINC000992031068
##########                DOCK_Rotatable_Bonds:                   8
##########                         Heavy_Atoms:                  25
##########                    Molecular_Weight:             342.401
##########                DOCK_Rotatable_Bonds:                   8
##########                       Formal_Charge:           0.0199999
##########                     HBond_Acceptors:                   8
##########                        HBond_Donors:                   2
##########                         Heavy_Atoms:                  25
##########                          Grid_Score:          -39.056240
##########                     Grid_vdw_energy:          -36.902424
##########                      Grid_es_energy:           -2.153816
##########           Internal_energy_repulsive:           13.151294

@<TRIPOS>MOLECULE
ZINC000992031068
 47 49 1 0 0
SMALL
USER_CHARGES


@<TRIPOS>ATOM
      1 C1         -6.5981   -4.3969   55.5883 C.3     1  ZINC000992031068   -0.1100
      2 C2         -7.5199   -4.0075   56.7152 C.ar    1  ZINC000992031068    0.1800
      3 C3         -8.8784   -3.8420   56.4864 C.ar    1  ZINC000992031068   -0.1700
      4 C4         -9.6906   -3.4813   57.5622 C.ar    1  ZINC000992031068    0.1300
      5 C5        -11.1509   -3.2914   57.3749 C.2     1  ZINC000992031068    0.5700
      6 O6        -11.6089   -3.1682   56.2565 O.2     1  ZINC000992031068   -0.5200
      7 N7        -11.9687   -3.2555   58.4455 N.am    1  ZINC000992031068   -0.7100
      8 C8        -13.4100   -3.0699   58.2606 C.3     1  ZINC000992031068    0.1300
      9 C9        -13.8625   -1.8136   59.0075 C.3     1  ZINC000992031068   -0.1200
     10 C10       -13.1026   -1.5713   60.3223 C.3     1  ZINC000992031068   -0.1400
     11 C11       -13.1013   -0.0781   59.9548 C.3     1  ZINC000992031068    0.1200
     12 N12       -11.8419    0.6021   60.2675 N.am    1  ZINC000992031068   -0.7200
     13 C13       -11.5454    0.9178   61.5438 C.2     1  ZINC000992031068    0.5200
     14 O14       -12.3203    0.6375   62.4335 O.2     1  ZINC000992031068   -0.5200
     15 C15       -10.2508    1.6191   61.8651 C.3     1  ZINC000992031068   -0.0800
     16 C16        -9.6161    0.9744   63.0703 C.2     1  ZINC000992031068    0.1000
     17 C17        -8.7288   -0.0471   63.0541 C.2     1  ZINC000992031068   -0.2500
     18 C18        -8.3891   -0.3433   64.3783 C.2     1  ZINC000992031068    0.0500
     19 N19        -9.0488    0.4713   65.1613 N.2     1  ZINC000992031068   -0.2900
     20 N20        -9.8262    1.3163   64.3588 N.pl3   1  ZINC000992031068   -0.3700
     21 C21       -10.7170    2.3775   64.8347 C.3     1  ZINC000992031068    0.1000
     22 C22       -13.2146   -0.5201   58.4863 C.3     1  ZINC000992031068   -0.1400
     23 N23        -9.1343   -3.3110   58.7591 N.ar    1  ZINC000992031068   -0.5000
     24 C24        -7.8404   -3.4788   58.9294 C.ar    1  ZINC000992031068    0.3000
     25 N25        -7.0454   -3.8243   57.9354 N.ar    1  ZINC000992031068   -0.5100
     26 H26        -6.5367   -5.4836   55.5282 H       1  ZINC000992031068    0.0900
     27 H27        -6.9855   -4.0025   54.6490 H       1  ZINC000992031068    0.0900
     28 H28        -5.6052   -3.9866   55.7728 H       1  ZINC000992031068    0.0900
     29 H29        -9.2963   -3.9882   55.5013 H       1  ZINC000992031068    0.1600
     30 H30       -11.6029   -3.3527   59.3387 H       1  ZINC000992031068    0.4100
     31 H31       -13.6288   -2.9597   57.1984 H       1  ZINC000992031068    0.0700
     32 H32       -13.9414   -3.9371   58.6530 H       1  ZINC000992031068    0.0800
     33 H33       -14.9458   -1.7490   59.1095 H       1  ZINC000992031068    0.1000
     34 H34       -13.6870   -1.8012   61.2132 H       1  ZINC000992031068    0.0800
     35 H35       -12.1082   -2.0175   60.3404 H       1  ZINC000992031068    0.0900
     36 H36       -13.9755    0.4618   60.3184 H       1  ZINC000992031068    0.1200
     37 H37       -11.2216    0.8252   59.5560 H       1  ZINC000992031068    0.4000
     38 H38        -9.5747    1.5422   61.0136 H       1  ZINC000992031068    0.1200
     39 H39       -10.4497    2.6696   62.0775 H       1  ZINC000992031068    0.1100
     40 H40        -8.3501   -0.5460   62.1743 H       1  ZINC000992031068    0.1500
     41 H41        -7.7016   -1.1120   64.6989 H       1  ZINC000992031068    0.1800
     42 H42       -10.1615    3.3124   64.9083 H       1  ZINC000992031068    0.0800
     43 H43       -11.5430    2.4999   64.1339 H       1  ZINC000992031068    0.0800
     44 H44       -11.1095    2.1097   65.8156 H       1  ZINC000992031068    0.0900
     45 H45       -12.2507   -0.6787   58.0024 H       1  ZINC000992031068    0.0900
     46 H46       -13.8894    0.0987   57.8949 H       1  ZINC000992031068    0.0800
     47 H47        -7.4179   -3.3334   59.9125 H       1  ZINC000992031068    0.2100
@<TRIPOS>BOND
     1     1     2    1
     2     1    26    1
     3     1    27    1
     4     1    28    1
     5     2    25   ar
     6     2     3   ar
     7     3     4   ar
     8     3    29    1
     9     4     5    1
    10     4    23   ar
    11     5     6    2
    12     5     7   am
    13     7     8    1
    14     7    30    1
    15     8     9    1
    16     8    31    1
    17     8    32    1
    18     9    22    1
    19     9    10    1
    20     9    33    1
    21    10    11    1
    22    10    34    1
    23    10    35    1
    24    11    12    1
    25    11    22    1
    26    11    36    1
    27    12    13   am
    28    12    37    1
    29    13    14    2
    30    13    15    1
    31    15    16    1
    32    15    38    1
    33    15    39    1
    34    16    20    1
    35    16    17    2
    36    17    18    1
    37    17    40    1
    38    18    19    2
    39    18    41    1
    40    19    20    1
    41    20    21    1
    42    21    42    1
    43    21    43    1
    44    21    44    1
    45    22    45    1
    46    22    46    1
    47    23    24   ar
    48    24    25   ar
    49    24    47    1
@<TRIPOS>SUBSTRUCTURE
     1 ZINC000992031068        1 TEMP              0 ****  ****    0 ROOT


##########                                Name:    ZINC000508782983
##########                DOCK_Rotatable_Bonds:                   9
##########                         Heavy_Atoms:                  27
##########                    Molecular_Weight:             373.458
##########                DOCK_Rotatable_Bonds:                   9
##########                       Formal_Charge:          -0.0200006
##########                     HBond_Acceptors:                   9
##########                        HBond_Donors:                   2
##########                         Heavy_Atoms:                  27
##########                          Grid_Score:          -39.016804
##########                     Grid_vdw_energy:          -35.955479
##########                      Grid_es_energy:           -3.061324
##########           Internal_energy_repulsive:           25.233046

@<TRIPOS>MOLECULE
ZINC000508782983
 54 56 1 0 0
SMALL
USER_CHARGES


@<TRIPOS>ATOM
      1 C1         -9.1347    4.0256   64.1677 C.3     1  ZINC000508782983   -0.1500
      2 C2         -8.4326    3.7261   65.4936 C.3     1  ZINC000508782983   -0.1100
      3 C3         -8.6560    4.8885   66.4631 C.3     1  ZINC000508782983   -0.1500
      4 C4         -9.0066    2.4422   66.0961 C.3     1  ZINC000508782983    0.1000
      5 N5         -8.7927    1.3290   65.1679 N.pl3   1  ZINC000508782983   -0.4400
      6 C6         -7.7032    0.5013   65.1297 C.2     1  ZINC000508782983   -0.0400
      7 C7         -7.9159   -0.3770   64.1312 C.2     1  ZINC000508782983   -0.0300
      8 N8         -9.1031   -0.0932   63.5750 N.2     1  ZINC000508782983   -0.4700
      9 C9         -9.6362    0.9243   64.1941 C.2     1  ZINC000508782983    0.1700
     10 C10       -10.9682    1.5501   63.8698 C.3     1  ZINC000508782983    0.2100
     11 N11       -11.7015    0.6847   62.9427 N.am    1  ZINC000508782983   -0.6900
     12 C12       -11.6974    0.9549   61.6223 C.2     1  ZINC000508782983    0.5100
     13 O13       -11.0875    1.9159   61.2016 O.2     1  ZINC000508782983   -0.5100
     14 C14       -12.4440    0.0710   60.6762 C.2     1  ZINC000508782983    0.5100
     15 O15       -13.6537    0.0002   60.7386 O.2     1  ZINC000508782983   -0.5200
     16 N16       -11.7735   -0.6475   59.7539 N.am    1  ZINC000508782983   -0.5800
     17 C17       -10.3069   -0.5812   59.6652 C.3     1  ZINC000508782983    0.0800
     18 C18        -9.7535   -2.0101   59.6734 C.3     1  ZINC000508782983    0.0400
     19 N19       -10.4053   -2.7902   58.6128 N.3     1  ZINC000508782983   -0.5400
     20 C20        -9.7823   -4.1133   58.4741 C.3     1  ZINC000508782983    0.1400
     21 C21        -8.4213   -3.9641   57.8444 C.2     1  ZINC000508782983    0.2100
     22 N22        -8.1636   -4.0243   56.5665 N.2     1  ZINC000508782983   -0.4900
     23 C23        -6.8484   -3.8480   56.3716 C.2     1  ZINC000508782983   -0.0300
     24 C24        -6.2690   -3.6719   57.5743 C.2     1  ZINC000508782983   -0.0500
     25 N25        -7.2670   -3.7401   58.5086 N.pl3   1  ZINC000508782983   -0.5600
     26 C26       -11.8498   -2.9109   58.8513 C.3     1  ZINC000508782983    0.0400
     27 C27       -12.4887   -1.5235   58.8134 C.3     1  ZINC000508782983    0.1100
     28 H28        -8.7258    4.9403   63.7386 H       1  ZINC000508782983    0.0700
     29 H29        -8.9756    3.1975   63.4771 H       1  ZINC000508782983    0.0600
     30 H30       -10.2030    4.1525   64.3429 H       1  ZINC000508782983    0.0600
     31 H31        -7.3642    3.5993   65.3186 H       1  ZINC000508782983    0.0800
     32 H32        -9.7254    5.0651   66.5783 H       1  ZINC000508782983    0.0600
     33 H33        -8.2219    4.6422   67.4321 H       1  ZINC000508782983    0.0600
     34 H34        -8.1798    5.7865   66.0694 H       1  ZINC000508782983    0.0600
     35 H35        -8.5064    2.2288   67.0407 H       1  ZINC000508782983    0.1000
     36 H36       -10.0749    2.5690   66.2712 H       1  ZINC000508782983    0.0900
     37 H37        -6.8388    0.5444   65.7758 H       1  ZINC000508782983    0.1800
     38 H38        -7.2480   -1.1707   63.8310 H       1  ZINC000508782983    0.1700
     39 H39       -11.5452    1.6719   64.7865 H       1  ZINC000508782983    0.0900
     40 H40       -10.8092    2.5247   63.4083 H       1  ZINC000508782983    0.1100
     41 H41       -12.1900   -0.0829   63.2791 H       1  ZINC000508782983    0.4200
     42 H42       -10.0183   -0.0820   58.7402 H       1  ZINC000508782983    0.0800
     43 H43        -9.9129   -0.0311   60.5197 H       1  ZINC000508782983    0.1400
     44 H44        -8.6781   -1.9847   59.4975 H       1  ZINC000508782983    0.0900
     45 H45        -9.9536   -2.4722   60.6401 H       1  ZINC000508782983    0.0400
     46 H46        -9.6792   -4.5714   59.4577 H       1  ZINC000508782983    0.0900
     47 H47       -10.4074   -4.7449   57.8428 H       1  ZINC000508782983    0.0700
     48 H48        -6.3428   -3.8474   55.4173 H       1  ZINC000508782983    0.1700
     49 H49        -5.2191   -3.5047   57.7649 H       1  ZINC000508782983    0.1800
     50 H50        -7.1637   -3.6499   59.4688 H       1  ZINC000508782983    0.4200
     51 H51       -12.2946   -3.5388   58.0793 H       1  ZINC000508782983    0.1100
     52 H52       -12.0207   -3.3604   59.8294 H       1  ZINC000508782983    0.0400
     53 H53       -13.5372   -1.5952   59.1024 H       1  ZINC000508782983    0.1000
     54 H54       -12.4106   -1.1117   57.8072 H       1  ZINC000508782983    0.0800
@<TRIPOS>BOND
     1     1     2    1
     2     1    28    1
     3     1    29    1
     4     1    30    1
     5     2     3    1
     6     2     4    1
     7     2    31    1
     8     3    32    1
     9     3    33    1
    10     3    34    1
    11     4     5    1
    12     4    35    1
    13     4    36    1
    14     5     9    1
    15     5     6    1
    16     6     7    2
    17     6    37    1
    18     7     8    1
    19     7    38    1
    20     8     9    2
    21     9    10    1
    22    10    11    1
    23    10    39    1
    24    10    40    1
    25    11    12   am
    26    11    41    1
    27    12    13    2
    28    12    14    1
    29    14    15    2
    30    14    16   am
    31    16    27    1
    32    16    17    1
    33    17    18    1
    34    17    42    1
    35    17    43    1
    36    18    19    1
    37    18    44    1
    38    18    45    1
    39    19    20    1
    40    19    26    1
    41    20    21    1
    42    20    46    1
    43    20    47    1
    44    21    25    1
    45    21    22    2
    46    22    23    1
    47    23    24    2
    48    23    48    1
    49    24    25    1
    50    24    49    1
    51    25    50    1
    52    26    27    1
    53    26    51    1
    54    26    52    1
    55    27    53    1
    56    27    54    1
@<TRIPOS>SUBSTRUCTURE
     1 ZINC000508782983        1 TEMP              0 ****  ****    0 ROOT


##########                                Name:    ZINC000767361237
##########                DOCK_Rotatable_Bonds:                  10
##########                         Heavy_Atoms:                  30
##########                    Molecular_Weight:             409.439
##########                DOCK_Rotatable_Bonds:                  10
##########                       Formal_Charge:          -0.0300005
##########                     HBond_Acceptors:                   7
##########                        HBond_Donors:                   1
##########                         Heavy_Atoms:                  30
##########                          Grid_Score:          -39.006069
##########                     Grid_vdw_energy:          -34.345825
##########                      Grid_es_energy:           -4.660245
##########           Internal_energy_repulsive:           20.497705

@<TRIPOS>MOLECULE
ZINC000767361237
 53 55 1 0 0
SMALL
USER_CHARGES


@<TRIPOS>ATOM
      1 C1         -6.2906    5.8501   65.6588 C.3     1  ZINC000767361237   -0.1200
      2 C2         -7.3315    4.8285   65.2792 C.ar    1  ZINC000767361237   -0.0900
      3 C3         -7.8057    4.7742   63.9819 C.ar    1  ZINC000767361237   -0.1200
      4 C4         -8.7604    3.8371   63.6338 C.ar    1  ZINC000767361237   -0.1100
      5 C5         -9.2407    2.9542   64.5828 C.ar    1  ZINC000767361237   -0.0800
      6 C6        -10.2819    1.9329   64.2033 C.3     1  ZINC000767361237   -0.0800
      7 H7        -10.9064    1.7119   65.0689 H       1  ZINC000767361237    0.0900
      8 C8         -9.5913    0.6516   63.7322 C.3     1  ZINC000767361237   -0.1500
      9 C9        -11.1528    2.4877   63.0744 C.3     1  ZINC000767361237    0.1300
     10 H10       -10.6859    2.2685   62.1141 H       1  ZINC000767361237    0.1400
     11 O11       -11.2866    3.9021   63.2271 O.3     1  ZINC000767361237   -0.5200
     12 C12       -12.5151    1.8454   63.1289 C.2     1  ZINC000767361237    0.4300
     13 O13       -13.4258    2.4074   63.6898 O.2     1  ZINC000767361237   -0.5000
     14 O14       -12.7166    0.6492   62.5542 O.3     1  ZINC000767361237   -0.3300
     15 C15       -12.3679    0.5253   61.1502 C.3     1  ZINC000767361237    0.0100
     16 C16       -13.0193   -0.7071   60.5777 C.2     1  ZINC000767361237    0.3700
     17 O17       -13.9496   -1.2203   61.1517 O.2     1  ZINC000767361237   -0.4200
     18 C18       -12.5098   -1.2991   59.2889 C.3     1  ZINC000767361237   -0.1800
     19 C19       -12.1266   -2.7628   59.5164 C.3     1  ZINC000767361237    0.1200
     20 N20       -10.8522   -3.0431   58.8505 N.am    1  ZINC000767361237   -0.5800
     21 C21        -9.6571   -3.0542   59.4679 C.2     1  ZINC000767361237    0.5700
     22 O22        -9.4666   -2.8369   60.6475 O.2     1  ZINC000767361237   -0.4600
     23 C23        -8.6147   -3.3762   58.4706 C.ar    1  ZINC000767361237   -0.1400
     24 C24        -7.2381   -3.5225   58.5227 C.ar    1  ZINC000767361237   -0.0400
     25 C25        -6.5362   -3.8369   57.3690 C.ar    1  ZINC000767361237   -0.0900
     26 C26        -7.2004   -4.0050   56.1689 C.ar    1  ZINC000767361237   -0.0900
     27 C27        -8.5778   -3.8615   56.1016 C.ar    1  ZINC000767361237   -0.0400
     28 C28        -9.2922   -3.5476   57.2462 C.ar    1  ZINC000767361237   -0.1400
     29 C29       -10.7238   -3.3289   57.5422 C.2     1  ZINC000767361237    0.5700
     30 O30       -11.6319   -3.3944   56.7385 O.2     1  ZINC000767361237   -0.4600
     31 C31        -8.7655    3.0076   65.8798 C.ar    1  ZINC000767361237   -0.1100
     32 C32        -7.8079    3.9422   66.2271 C.ar    1  ZINC000767361237   -0.1200
     33 H33        -5.2965    5.4315   65.5022 H       1  ZINC000767361237    0.0700
     34 H34        -6.4118    6.7395   65.0404 H       1  ZINC000767361237    0.0700
     35 H35        -6.4106    6.1183   66.7085 H       1  ZINC000767361237    0.0700
     36 H36        -7.4304    5.4640   63.2405 H       1  ZINC000767361237    0.1200
     37 H37        -9.1314    3.7951   62.6203 H       1  ZINC000767361237    0.1200
     38 H38       -10.3444   -0.0872   63.4577 H       1  ZINC000767361237    0.0800
     39 H39        -8.9668    0.8726   62.8665 H       1  ZINC000767361237    0.0700
     40 H40        -8.9708    0.2563   64.5365 H       1  ZINC000767361237    0.0600
     41 H41       -11.6955    4.1708   64.0612 H       1  ZINC000767361237    0.3900
     42 H42       -12.7173    1.4053   60.6100 H       1  ZINC000767361237    0.1100
     43 H43       -11.2855    0.4438   61.0505 H       1  ZINC000767361237    0.1100
     44 H44       -13.2894   -1.2415   58.5294 H       1  ZINC000767361237    0.1100
     45 H45       -11.6346   -0.7422   58.9543 H       1  ZINC000767361237    0.1100
     46 H46       -12.0269   -2.9503   60.5855 H       1  ZINC000767361237    0.1100
     47 H47       -12.9016   -3.4094   59.1049 H       1  ZINC000767361237    0.1100
     48 H48        -6.7139   -3.3921   59.4578 H       1  ZINC000767361237    0.1400
     49 H49        -5.4631   -3.9510   57.4086 H       1  ZINC000767361237    0.1400
     50 H50        -6.6425   -4.2494   55.2770 H       1  ZINC000767361237    0.1400
     51 H51        -9.0916   -3.9944   55.1610 H       1  ZINC000767361237    0.1400
     52 H52        -9.1404    2.3176   66.6212 H       1  ZINC000767361237    0.1200
     53 H53        -7.4366    3.9841   67.2403 H       1  ZINC000767361237    0.1200
@<TRIPOS>BOND
     1     1     2    1
     2     1    33    1
     3     1    34    1
     4     1    35    1
     5     2    32   ar
     6     2     3   ar
     7     3     4   ar
     8     3    36    1
     9     4     5   ar
    10     4    37    1
    11     5     6    1
    12     5    31   ar
    13     6     7    1
    14     6     8    1
    15     6     9    1
    16     8    38    1
    17     8    39    1
    18     8    40    1
    19     9    10    1
    20     9    11    1
    21     9    12    1
    22    11    41    1
    23    12    13    2
    24    12    14    1
    25    14    15    1
    26    15    16    1
    27    15    42    1
    28    15    43    1
    29    16    17    2
    30    16    18    1
    31    18    19    1
    32    18    44    1
    33    18    45    1
    34    19    20    1
    35    19    46    1
    36    19    47    1
    37    20    29   am
    38    20    21   am
    39    21    22    2
    40    21    23    1
    41    23    28   ar
    42    23    24   ar
    43    24    25   ar
    44    24    48    1
    45    25    26   ar
    46    25    49    1
    47    26    27   ar
    48    26    50    1
    49    27    28   ar
    50    27    51    1
    51    28    29    1
    52    29    30    2
    53    31    32   ar
    54    31    52    1
    55    32    53    1
@<TRIPOS>SUBSTRUCTURE
     1 ZINC000767361237        1 TEMP              0 ****  ****    0 ROOT


##########                                Name:    ZINC000506566356
##########                DOCK_Rotatable_Bonds:                  10
##########                         Heavy_Atoms:                  28
##########                    Molecular_Weight:               415.9
##########                DOCK_Rotatable_Bonds:                  10
##########                       Formal_Charge:           0.0199998
##########                     HBond_Acceptors:                   8
##########                        HBond_Donors:                   2
##########                         Heavy_Atoms:                  28
##########                          Grid_Score:          -38.912556
##########                     Grid_vdw_energy:          -39.131832
##########                      Grid_es_energy:            0.219276
##########           Internal_energy_repulsive:           10.710220

@<TRIPOS>MOLECULE
ZINC000506566356
 46 48 1 0 0
SMALL
USER_CHARGES


@<TRIPOS>ATOM
      1 O1         -9.5304    1.7557   60.6848 O.2     1  ZINC000506566356   -0.5100
      2 C2        -10.3280    1.0074   61.2111 C.2     1  ZINC000506566356    0.5100
      3 N3        -10.3709    0.9049   62.5542 N.am    1  ZINC000506566356   -0.7000
      4 C4         -9.4508    1.6921   63.3788 C.3     1  ZINC000506566356    0.1200
      5 C5         -9.1950    0.9605   64.6980 C.3     1  ZINC000506566356   -0.0900
      6 C6         -8.2174    1.7506   65.5292 C.ar    1  ZINC000506566356   -0.0700
      7 C7         -8.1735    3.1279   65.4212 C.ar    1  ZINC000506566356   -0.1100
      8 C8         -7.2772    3.8535   66.1839 C.ar    1  ZINC000506566356   -0.1000
      9 C9         -6.4242    3.2021   67.0543 C.ar    1  ZINC000506566356   -0.1100
     10 C10        -6.4675    1.8233   67.1629 C.ar    1  ZINC000506566356   -0.0300
     11 Cl11       -5.3967    1.0043   68.2565 Cl      1  ZINC000506566356   -0.0700
     12 C12        -7.3685    1.0983   66.4038 C.ar    1  ZINC000506566356   -0.1000
     13 C13       -11.2659    0.2049   60.3706 C.2     1  ZINC000506566356    0.5100
     14 O14       -11.9591    0.7556   59.5402 O.2     1  ZINC000506566356   -0.5000
     15 N15       -11.3427   -1.1307   60.5341 N.am    1  ZINC000506566356   -0.6300
     16 C16       -12.2212   -1.8823   59.7468 C.ar    1  ZINC000506566356    0.1100
     17 C17       -13.5883   -1.8183   59.9750 C.ar    1  ZINC000506566356   -0.0800
     18 C18       -14.4542   -2.5620   59.1957 C.ar    1  ZINC000506566356   -0.1400
     19 C19       -13.9619   -3.3708   58.1883 C.ar    1  ZINC000506566356   -0.0900
     20 C20       -12.6006   -3.4405   57.9549 C.ar    1  ZINC000506566356   -0.1900
     21 C21       -11.7261   -2.6938   58.7270 C.ar    1  ZINC000506566356    0.1200
     22 O22       -10.3875   -2.7612   58.4989 O.3     1  ZINC000506566356   -0.3100
     23 C23        -9.8071   -4.0650   58.4237 C.3     1  ZINC000506566356    0.1400
     24 C24        -8.3823   -3.9537   57.9456 C.2     1  ZINC000506566356    0.0500
     25 C25        -8.0375   -4.0939   56.6621 C.2     1  ZINC000506566356   -0.2300
     26 S26        -6.2912   -3.8906   56.5444 S.3     1  ZINC000506566356    0.1400
     27 C27        -6.1985   -3.6373   58.2328 C.2     1  ZINC000506566356    0.0200
     28 N28        -7.3751   -3.7048   58.7580 N.2     1  ZINC000506566356   -0.4700
     29 H29       -11.0110    0.3097   62.9750 H       1  ZINC000506566356    0.4200
     30 H30        -8.5082    1.8232   62.8474 H       1  ZINC000506566356    0.0800
     31 H31        -9.8910    2.6679   63.5839 H       1  ZINC000506566356    0.0800
     32 H32       -10.1333    0.8553   65.2429 H       1  ZINC000506566356    0.0900
     33 H33        -8.7819   -0.0268   64.4917 H       1  ZINC000506566356    0.0900
     34 H34        -8.8396    3.6374   64.7405 H       1  ZINC000506566356    0.1300
     35 H35        -7.2434    4.9296   66.0990 H       1  ZINC000506566356    0.1300
     36 H36        -5.7235    3.7689   67.6494 H       1  ZINC000506566356    0.1300
     37 H37        -7.4029    0.0222   66.4882 H       1  ZINC000506566356    0.1300
     38 H38       -10.7886   -1.5708   61.1977 H       1  ZINC000506566356    0.4300
     39 H39       -13.9757   -1.1875   60.7615 H       1  ZINC000506566356    0.1500
     40 H40       -15.5181   -2.5116   59.3745 H       1  ZINC000506566356    0.1300
     41 H41       -14.6424   -3.9502   57.5819 H       1  ZINC000506566356    0.1300
     42 H42       -12.2196   -4.0740   57.1675 H       1  ZINC000506566356    0.1400
     43 H43        -9.8241   -4.5276   59.4105 H       1  ZINC000506566356    0.0900
     44 H44       -10.3779   -4.6771   57.7255 H       1  ZINC000506566356    0.0900
     45 H45        -8.7103   -4.2960   55.8418 H       1  ZINC000506566356    0.1800
     46 H46        -5.2874   -3.4442   58.7798 H       1  ZINC000506566356    0.2100
@<TRIPOS>BOND
     1     1     2    2
     2     2     3   am
     3     2    13    1
     4     3     4    1
     5     3    29    1
     6     4     5    1
     7     4    30    1
     8     4    31    1
     9     5     6    1
    10     5    32    1
    11     5    33    1
    12     6    12   ar
    13     6     7   ar
    14     7     8   ar
    15     7    34    1
    16     8     9   ar
    17     8    35    1
    18     9    10   ar
    19     9    36    1
    20    10    11    1
    21    10    12   ar
    22    12    37    1
    23    13    14    2
    24    13    15   am
    25    15    16    1
    26    15    38    1
    27    16    21   ar
    28    16    17   ar
    29    17    18   ar
    30    17    39    1
    31    18    19   ar
    32    18    40    1
    33    19    20   ar
    34    19    41    1
    35    20    21   ar
    36    20    42    1
    37    21    22    1
    38    22    23    1
    39    23    24    1
    40    23    43    1
    41    23    44    1
    42    24    28    1
    43    24    25    2
    44    25    26    1
    45    25    45    1
    46    26    27    1
    47    27    28    2
    48    27    46    1
@<TRIPOS>SUBSTRUCTURE
     1 ZINC000506566356        1 TEMP              0 ****  ****    0 ROOT


##########                                Name:    ZINC000600609084
##########                DOCK_Rotatable_Bonds:                   8
##########                         Heavy_Atoms:                  30
##########                    Molecular_Weight:             422.548
##########                DOCK_Rotatable_Bonds:                   8
##########                       Formal_Charge:           0.0100005
##########                     HBond_Acceptors:                   6
##########                        HBond_Donors:                   2
##########                         Heavy_Atoms:                  30
##########                          Grid_Score:          -38.416618
##########                     Grid_vdw_energy:          -35.766609
##########                      Grid_es_energy:           -2.650010
##########           Internal_energy_repulsive:           25.011023

@<TRIPOS>MOLECULE
ZINC000600609084
 56 59 1 0 0
SMALL
USER_CHARGES


@<TRIPOS>ATOM
      1 O1        -14.1572    1.8656   61.9220 O.2     1  ZINC000600609084   -0.5300
      2 C2        -13.2423    1.0758   61.8221 C.2     1  ZINC000600609084    0.5200
      3 C3        -13.4226   -0.1888   61.0225 C.3     1  ZINC000600609084   -0.1500
      4 C4        -12.5929   -0.1040   59.7399 C.3     1  ZINC000600609084    0.1300
      5 N5        -13.1838   -0.9710   58.7177 N.am    1  ZINC000600609084   -1.1200
      6 S6        -12.9313   -2.6068   58.7723 S.o2    1  ZINC000600609084    2.7000
      7 O7        -13.3188   -3.0295   60.0724 O.2     1  ZINC000600609084   -0.9600
      8 O8        -13.4948   -3.1398   57.5816 O.2     1  ZINC000600609084   -0.9500
      9 C9        -11.1927   -2.8701   58.6610 C.ar    1  ZINC000600609084   -0.6700
     10 C10       -10.3937   -2.6614   59.7832 C.ar    1  ZINC000600609084   -0.0400
     11 C11        -9.0474   -2.8557   59.7312 C.ar    1  ZINC000600609084   -0.1200
     12 C12        -8.4513   -3.2732   58.5293 C.ar    1  ZINC000600609084   -0.0100
     13 C13        -7.0650   -3.4849   58.4370 C.ar    1  ZINC000600609084   -0.1200
     14 C14        -6.5227   -3.8896   57.2563 C.ar    1  ZINC000600609084   -0.0900
     15 C15        -7.3219   -4.0984   56.1336 C.ar    1  ZINC000600609084   -0.1200
     16 C16        -8.6678   -3.9035   56.1855 C.ar    1  ZINC000600609084   -0.0900
     17 C17        -9.2641   -3.4856   57.3876 C.ar    1  ZINC000600609084   -0.0800
     18 C18       -10.6508   -3.2800   57.4814 C.ar    1  ZINC000600609084    0.0200
     19 N19       -12.0626    1.3317   62.4215 N.am    1  ZINC000600609084   -0.7200
     20 C20       -11.8874    2.5610   63.1988 C.3     1  ZINC000600609084    0.1400
     21 H21       -12.7587    3.2049   63.0800 H       1  ZINC000600609084    0.1000
     22 C22       -11.6826    2.2201   64.6853 C.3     1  ZINC000600609084   -0.1300
     23 C23       -10.2931    2.7650   65.0751 C.3     1  ZINC000600609084   -0.1300
     24 C24        -9.5232    2.8373   63.7331 C.3     1  ZINC000600609084   -0.1200
     25 C25       -10.6158    3.3019   62.7364 C.3     1  ZINC000600609084   -0.0700
     26 H26       -10.7573    4.3808   62.8011 H       1  ZINC000600609084    0.0900
     27 C27       -10.2507    2.9026   61.3298 C.ar    1  ZINC000600609084   -0.0600
     28 C28        -9.7731    1.6309   61.0742 C.ar    1  ZINC000600609084   -0.1100
     29 C29        -9.4381    1.2647   59.7841 C.ar    1  ZINC000600609084   -0.1200
     30 C30        -9.5813    2.1702   58.7493 C.ar    1  ZINC000600609084   -0.1200
     31 C31       -10.0598    3.4417   59.0049 C.ar    1  ZINC000600609084   -0.1200
     32 C32       -10.3987    3.8064   60.2943 C.ar    1  ZINC000600609084   -0.1100
     33 H33       -13.0917   -1.0427   61.6136 H       1  ZINC000600609084    0.1000
     34 H34       -14.4753   -0.3100   60.7669 H       1  ZINC000600609084    0.1000
     35 H35       -12.5822    0.9254   59.3814 H       1  ZINC000600609084    0.0900
     36 H36       -11.5724   -0.4277   59.9452 H       1  ZINC000600609084    0.0800
     37 H37       -13.7232   -0.5870   58.0087 H       1  ZINC000600609084    0.4200
     38 H38       -10.8493   -2.3401   60.7082 H       1  ZINC000600609084    0.1400
     39 H39        -8.4405   -2.6896   60.6090 H       1  ZINC000600609084    0.1400
     40 H40        -6.4331   -3.3267   59.2986 H       1  ZINC000600609084    0.1300
     41 H41        -5.4571   -4.0510   57.1879 H       1  ZINC000600609084    0.1300
     42 H42        -6.8662   -4.4191   55.2085 H       1  ZINC000600609084    0.1300
     43 H43        -9.2745   -4.0689   55.3074 H       1  ZINC000600609084    0.1300
     44 H44       -11.2830   -3.4425   56.6210 H       1  ZINC000600609084    0.1500
     45 H45       -11.3296    0.7019   62.3381 H       1  ZINC000600609084    0.4000
     46 H46       -12.4542    2.6992   65.2879 H       1  ZINC000600609084    0.0800
     47 H47       -11.7137    1.1399   64.8283 H       1  ZINC000600609084    0.0700
     48 H48       -10.3828    3.7572   65.5173 H       1  ZINC000600609084    0.0700
     49 H49        -9.7953    2.0827   65.7642 H       1  ZINC000600609084    0.0700
     50 H50        -8.7162    3.5678   63.7895 H       1  ZINC000600609084    0.0700
     51 H51        -9.1387    1.8560   63.4551 H       1  ZINC000600609084    0.0700
     52 H52        -9.6613    0.9235   61.8826 H       1  ZINC000600609084    0.1200
     53 H53        -9.0643    0.2714   59.5845 H       1  ZINC000600609084    0.1200
     54 H54        -9.3189    1.8843   57.7415 H       1  ZINC000600609084    0.1200
     55 H55       -10.1712    4.1492   58.1965 H       1  ZINC000600609084    0.1200
     56 H56       -10.7725    4.7999   60.4939 H       1  ZINC000600609084    0.1200
@<TRIPOS>BOND
     1     1     2    2
     2     2     3    1
     3     2    19   am
     4     3     4    1
     5     3    33    1
     6     3    34    1
     7     4     5    1
     8     4    35    1
     9     4    36    1
    10     5     6   am
    11     5    37    1
    12     6     7    2
    13     6     8    2
    14     6     9    1
    15     9    18   ar
    16     9    10   ar
    17    10    11   ar
    18    10    38    1
    19    11    12   ar
    20    11    39    1
    21    12    17   ar
    22    12    13   ar
    23    13    14   ar
    24    13    40    1
    25    14    15   ar
    26    14    41    1
    27    15    16   ar
    28    15    42    1
    29    16    17   ar
    30    16    43    1
    31    17    18   ar
    32    18    44    1
    33    19    20    1
    34    19    45    1
    35    20    21    1
    36    20    25    1
    37    20    22    1
    38    22    23    1
    39    22    46    1
    40    22    47    1
    41    23    24    1
    42    23    48    1
    43    23    49    1
    44    24    25    1
    45    24    50    1
    46    24    51    1
    47    25    26    1
    48    25    27    1
    49    27    32   ar
    50    27    28   ar
    51    28    29   ar
    52    28    52    1
    53    29    30   ar
    54    29    53    1
    55    30    31   ar
    56    30    54    1
    57    31    32   ar
    58    31    55    1
    59    32    56    1
@<TRIPOS>SUBSTRUCTURE
     1 ZINC000600609084        1 TEMP              0 ****  ****    0 ROOT


##########                                Name:    ZINC000623695407
##########                DOCK_Rotatable_Bonds:                  10
##########                         Heavy_Atoms:                  27
##########                    Molecular_Weight:             368.479
##########                DOCK_Rotatable_Bonds:                  10
##########                       Formal_Charge:           0.0299989
##########                     HBond_Acceptors:                   6
##########                        HBond_Donors:                   2
##########                         Heavy_Atoms:                  27
##########                          Grid_Score:          -38.157799
##########                     Grid_vdw_energy:          -34.794666
##########                      Grid_es_energy:           -3.363133
##########           Internal_energy_repulsive:           12.675864

@<TRIPOS>MOLECULE
ZINC000623695407
 55 57 1 0 0
SMALL
USER_CHARGES


@<TRIPOS>ATOM
      1 C1         -6.0182   -3.7235   56.0305 C.3     1  ZINC000623695407    0.0300
      2 O2         -6.8947   -4.6142   56.7238 O.3     1  ZINC000623695407   -0.3200
      3 C3         -7.8490   -4.0520   57.5113 C.ar    1  ZINC000623695407    0.1300
      4 C4         -9.1646   -3.9946   57.0749 C.ar    1  ZINC000623695407   -0.2100
      5 C5        -10.1330   -3.4231   57.8775 C.ar    1  ZINC000623695407   -0.0600
      6 C6         -9.7917   -2.9082   59.1145 C.ar    1  ZINC000623695407   -0.1100
      7 C7        -10.8499   -2.2848   59.9878 C.3     1  ZINC000623695407    0.0600
      8 N8        -11.5034   -1.1895   59.2589 N.3     1  ZINC000623695407   -0.4600
      9 C9        -12.8786   -1.5577   58.8736 C.3     1  ZINC000623695407    0.0000
     10 C10       -13.3092   -0.1373   59.2655 C.3     1  ZINC000623695407   -0.1300
     11 C11       -12.0874   -0.2081   60.1921 C.3     1  ZINC000623695407    0.0100
     12 H12       -12.3113   -0.6231   61.1748 H       1  ZINC000623695407    0.0900
     13 C13       -11.3035    1.1036   60.2684 C.3     1  ZINC000623695407    0.1600
     14 N14       -10.1393    0.9267   61.1400 N.am    1  ZINC000623695407   -0.7400
     15 C15       -10.2733    1.0455   62.4758 C.2     1  ZINC000623695407    0.7100
     16 O16       -11.3601    1.3008   62.9575 O.2     1  ZINC000623695407   -0.5900
     17 N17        -9.2026    0.8812   63.2777 N.am    1  ZINC000623695407   -0.7400
     18 C18        -9.3487    1.0085   64.7299 C.3     1  ZINC000623695407    0.1700
     19 H19       -10.3864    0.8247   65.0082 H       1  ZINC000623695407    0.0900
     20 C20        -8.4457   -0.0126   65.4248 C.3     1  ZINC000623695407   -0.1600
     21 C21        -8.9476    2.4207   65.1608 C.3     1  ZINC000623695407   -0.0900
     22 C22       -10.0054    3.3997   64.7209 C.ar    1  ZINC000623695407   -0.0300
     23 C23        -9.9305    4.0161   63.4813 C.ar    1  ZINC000623695407   -0.1700
     24 C24       -10.9192    4.9084   63.1121 C.ar    1  ZINC000623695407    0.1000
     25 N25       -11.9238    5.1757   63.9234 N.ar    1  ZINC000623695407   -0.4900
     26 C26       -12.0273    4.6084   65.1093 C.ar    1  ZINC000623695407    0.1000
     27 C27       -11.0798    3.7012   65.5440 C.ar    1  ZINC000623695407   -0.1700
     28 C28        -8.4812   -2.9647   59.5518 C.ar    1  ZINC000623695407   -0.0700
     29 C29        -7.5101   -3.5399   58.7552 C.ar    1  ZINC000623695407   -0.1500
     30 H30        -5.3066   -4.3005   55.4399 H       1  ZINC000623695407    0.1000
     31 H31        -6.6009   -3.0806   55.3708 H       1  ZINC000623695407    0.0600
     32 H32        -5.4785   -3.1100   56.7520 H       1  ZINC000623695407    0.0600
     33 H33        -9.4315   -4.3960   56.1085 H       1  ZINC000623695407    0.1300
     34 H34       -11.1574   -3.3781   57.5383 H       1  ZINC000623695407    0.1200
     35 H35       -11.5917   -3.0379   60.2535 H       1  ZINC000623695407    0.0600
     36 H36       -10.3886   -1.8934   60.8945 H       1  ZINC000623695407    0.0700
     37 H37       -12.9901   -1.7673   57.8097 H       1  ZINC000623695407    0.0900
     38 H38       -13.3135   -2.3329   59.5044 H       1  ZINC000623695407    0.0700
     39 H39       -13.2186    0.5941   58.4623 H       1  ZINC000623695407    0.1000
     40 H40       -14.2642   -0.0889   59.7888 H       1  ZINC000623695407    0.0800
     41 H41       -10.9702    1.3863   59.2698 H       1  ZINC000623695407    0.0700
     42 H42       -11.9446    1.8870   60.6729 H       1  ZINC000623695407    0.0700
     43 H43        -9.2720    0.7242   60.7557 H       1  ZINC000623695407    0.3900
     44 H44        -8.3353    0.6786   62.8934 H       1  ZINC000623695407    0.3900
     45 H45        -8.5545    0.0823   66.5052 H       1  ZINC000623695407    0.0700
     46 H46        -8.7316   -1.0186   65.1178 H       1  ZINC000623695407    0.0700
     47 H47        -7.4080    0.1712   65.1464 H       1  ZINC000623695407    0.0600
     48 H48        -8.8491    2.4553   66.2458 H       1  ZINC000623695407    0.1000
     49 H49        -7.9950    2.6841   64.7010 H       1  ZINC000623695407    0.0800
     50 H50        -9.1099    3.8019   62.8127 H       1  ZINC000623695407    0.1300
     51 H51       -10.8682    5.3928   62.1481 H       1  ZINC000623695407    0.1500
     52 H52       -12.8644    4.8525   65.7465 H       1  ZINC000623695407    0.1600
     53 H53       -11.1701    3.2395   66.5162 H       1  ZINC000623695407    0.1400
     54 H54        -8.2173   -2.5621   60.5186 H       1  ZINC000623695407    0.1200
     55 H55        -6.4867   -3.5838   59.0973 H       1  ZINC000623695407    0.1300
@<TRIPOS>BOND
     1     1     2    1
     2     1    30    1
     3     1    31    1
     4     1    32    1
     5     2     3    1
     6     3    29   ar
     7     3     4   ar
     8     4     5   ar
     9     4    33    1
    10     5     6   ar
    11     5    34    1
    12     6     7    1
    13     6    28   ar
    14     7     8    1
    15     7    35    1
    16     7    36    1
    17     8    11    1
    18     8     9    1
    19     9    10    1
    20     9    37    1
    21     9    38    1
    22    10    11    1
    23    10    39    1
    24    10    40    1
    25    11    12    1
    26    11    13    1
    27    13    14    1
    28    13    41    1
    29    13    42    1
    30    14    15   am
    31    14    43    1
    32    15    16    2
    33    15    17   am
    34    17    18    1
    35    17    44    1
    36    18    19    1
    37    18    20    1
    38    18    21    1
    39    20    45    1
    40    20    46    1
    41    20    47    1
    42    21    22    1
    43    21    48    1
    44    21    49    1
    45    22    27   ar
    46    22    23   ar
    47    23    24   ar
    48    23    50    1
    49    24    25   ar
    50    24    51    1
    51    25    26   ar
    52    26    27   ar
    53    26    52    1
    54    27    53    1
    55    28    29   ar
    56    28    54    1
    57    29    55    1
@<TRIPOS>SUBSTRUCTURE
     1 ZINC000623695407        1 TEMP              0 ****  ****    0 ROOT


##########                                Name:    ZINC000770850676
##########                DOCK_Rotatable_Bonds:                  13
##########                         Heavy_Atoms:                  30
##########                    Molecular_Weight:             412.486
##########                DOCK_Rotatable_Bonds:                  13
##########                       Formal_Charge:          -0.0299994
##########                     HBond_Acceptors:                   7
##########                        HBond_Donors:                   3
##########                         Heavy_Atoms:                  30
##########                          Grid_Score:          -37.929024
##########                     Grid_vdw_energy:          -33.182808
##########                      Grid_es_energy:           -4.746217
##########           Internal_energy_repulsive:           14.220217

@<TRIPOS>MOLECULE
ZINC000770850676
 58 60 1 0 0
SMALL
USER_CHARGES


@<TRIPOS>ATOM
      1 O1        -12.4903    0.1209   61.4398 O.2     1  ZINC000770850676   -0.5300
      2 C2        -12.0057    0.9578   60.7080 C.2     1  ZINC000770850676    0.5100
      3 N3        -11.4800    2.0846   61.2280 N.am    1  ZINC000770850676   -0.7000
      4 C4        -11.4995    2.3013   62.6767 C.3     1  ZINC000770850676    0.1600
      5 H5        -12.2610    1.6659   63.1289 H       1  ZINC000770850676    0.1000
      6 C6        -11.8202    3.7685   62.9687 C.3     1  ZINC000770850676    0.0600
      7 O7        -13.0456    4.1253   62.3260 O.3     1  ZINC000770850676   -0.5700
      8 C8        -10.1302    1.9521   63.2631 C.3     1  ZINC000770850676   -0.1500
      9 C9        -10.1597    2.1490   64.7801 C.3     1  ZINC000770850676    0.1500
     10 H10       -10.3808    3.1920   65.0068 H       1  ZINC000770850676    0.1100
     11 O11       -11.1695    1.3135   65.3495 O.3     1  ZINC000770850676   -0.5400
     12 C12        -8.8182    1.7822   65.3605 C.ar    1  ZINC000770850676   -0.1200
     13 C13        -8.4781    0.4529   65.5290 C.ar    1  ZINC000770850676   -0.1100
     14 C14        -7.2476    0.1164   66.0614 C.ar    1  ZINC000770850676   -0.1200
     15 C15        -6.3570    1.1091   66.4249 C.ar    1  ZINC000770850676   -0.1200
     16 C16        -6.6966    2.4383   66.2555 C.ar    1  ZINC000770850676   -0.1200
     17 C17        -7.9254    2.7748   65.7191 C.ar    1  ZINC000770850676   -0.1100
     18 C18       -11.9856    0.7350   59.2176 C.3     1  ZINC000770850676    0.1400
     19 H19       -11.1863    1.3224   58.7659 H       1  ZINC000770850676    0.1000
     20 C20       -13.3440    1.1409   58.6080 C.3     1  ZINC000770850676   -0.1200
     21 C21       -13.5739    0.0587   57.5201 C.3     1  ZINC000770850676   -0.1300
     22 C22       -12.9622   -1.1947   58.1942 C.3     1  ZINC000770850676    0.1000
     23 N23       -11.7825   -0.6920   58.9281 N.am    1  ZINC000770850676   -0.5900
     24 C24       -10.7035   -1.4214   59.2747 C.2     1  ZINC000770850676    0.6700
     25 O25        -9.7879   -0.9014   59.8811 O.2     1  ZINC000770850676   -0.5600
     26 O26       -10.6401   -2.7262   58.9490 O.3     1  ZINC000770850676   -0.3600
     27 C27        -9.5286   -3.4875   59.4905 C.3     1  ZINC000770850676    0.1300
     28 C28        -8.4575   -3.6289   58.4399 C.ar    1  ZINC000770850676   -0.1000
     29 C29        -7.1242   -3.5625   58.7989 C.ar    1  ZINC000770850676   -0.0900
     30 C30        -6.1416   -3.6922   57.8352 C.ar    1  ZINC000770850676   -0.1200
     31 C31        -6.4924   -3.8888   56.5126 C.ar    1  ZINC000770850676   -0.1100
     32 C32        -7.8256   -3.9561   56.1538 C.ar    1  ZINC000770850676   -0.1200
     33 C33        -8.8081   -3.8307   57.1181 C.ar    1  ZINC000770850676   -0.0900
     34 H34       -11.0888    2.7523   60.6430 H       1  ZINC000770850676    0.4000
     35 H35       -11.9192    3.9116   64.0448 H       1  ZINC000770850676    0.0500
     36 H36       -11.0150    4.3986   62.5910 H       1  ZINC000770850676    0.0500
     37 H37       -13.2733    5.0617   62.4053 H       1  ZINC000770850676    0.3800
     38 H38        -9.8921    0.9128   63.0363 H       1  ZINC000770850676    0.0800
     39 H39        -9.3716    2.6021   62.8270 H       1  ZINC000770850676    0.0900
     40 H40       -11.2267    1.3666   66.3133 H       1  ZINC000770850676    0.3700
     41 H41        -9.1741   -0.3227   65.2450 H       1  ZINC000770850676    0.1200
     42 H42        -6.9823   -0.9221   66.1937 H       1  ZINC000770850676    0.1200
     43 H43        -5.3959    0.8463   66.8415 H       1  ZINC000770850676    0.1200
     44 H44        -6.0009    3.2139   66.5398 H       1  ZINC000770850676    0.1200
     45 H45        -8.1909    3.8133   65.5868 H       1  ZINC000770850676    0.1200
     46 H46       -14.1312    1.1040   59.3611 H       1  ZINC000770850676    0.0800
     47 H47       -13.2845    2.1324   58.1591 H       1  ZINC000770850676    0.1000
     48 H48       -14.6375   -0.0814   57.3270 H       1  ZINC000770850676    0.0900
     49 H49       -13.0413    0.3080   56.6023 H       1  ZINC000770850676    0.0800
     50 H50       -13.6777   -1.6417   58.8843 H       1  ZINC000770850676    0.0700
     51 H51       -12.6571   -1.9202   57.4400 H       1  ZINC000770850676    0.0900
     52 H52        -9.1207   -2.9681   60.3577 H       1  ZINC000770850676    0.0800
     53 H53        -9.8768   -4.4761   59.7898 H       1  ZINC000770850676    0.0800
     54 H54        -6.8502   -3.4090   59.8322 H       1  ZINC000770850676    0.1200
     55 H55        -5.1000   -3.6396   58.1156 H       1  ZINC000770850676    0.1300
     56 H56        -5.7246   -3.9893   55.7596 H       1  ZINC000770850676    0.1300
     57 H57        -8.0996   -4.1092   55.1204 H       1  ZINC000770850676    0.1300
     58 H58        -9.8497   -3.8833   56.8377 H       1  ZINC000770850676    0.1200
@<TRIPOS>BOND
     1     1     2    2
     2     2     3   am
     3     2    18    1
     4     3     4    1
     5     3    34    1
     6     4     5    1
     7     4     6    1
     8     4     8    1
     9     6     7    1
    10     6    35    1
    11     6    36    1
    12     7    37    1
    13     8     9    1
    14     8    38    1
    15     8    39    1
    16     9    10    1
    17     9    11    1
    18     9    12    1
    19    11    40    1
    20    12    17   ar
    21    12    13   ar
    22    13    14   ar
    23    13    41    1
    24    14    15   ar
    25    14    42    1
    26    15    16   ar
    27    15    43    1
    28    16    17   ar
    29    16    44    1
    30    17    45    1
    31    18    19    1
    32    18    23    1
    33    18    20    1
    34    20    21    1
    35    20    46    1
    36    20    47    1
    37    21    22    1
    38    21    48    1
    39    21    49    1
    40    22    23    1
    41    22    50    1
    42    22    51    1
    43    23    24   am
    44    24    25    2
    45    24    26    1
    46    26    27    1
    47    27    28    1
    48    27    52    1
    49    27    53    1
    50    28    33   ar
    51    28    29   ar
    52    29    30   ar
    53    29    54    1
    54    30    31   ar
    55    30    55    1
    56    31    32   ar
    57    31    56    1
    58    32    33   ar
    59    32    57    1
    60    33    58    1
@<TRIPOS>SUBSTRUCTURE
     1 ZINC000770850676        1 TEMP              0 ****  ****    0 ROOT


##########                                Name:    ZINC001326371752
##########                DOCK_Rotatable_Bonds:                   5
##########                         Heavy_Atoms:                  25
##########                    Molecular_Weight:             360.397
##########                DOCK_Rotatable_Bonds:                   5
##########                       Formal_Charge:           0.0199999
##########                     HBond_Acceptors:                  10
##########                        HBond_Donors:                   0
##########                         Heavy_Atoms:                  25
##########                          Grid_Score:          -37.782322
##########                     Grid_vdw_energy:          -34.232758
##########                      Grid_es_energy:           -3.549564
##########           Internal_energy_repulsive:           12.387380

@<TRIPOS>MOLECULE
ZINC001326371752
 41 44 1 0 0
SMALL
USER_CHARGES


@<TRIPOS>ATOM
      1 C1         -6.3922   -3.8734   57.1004 C.3     1  ZINC001326371752    0.0300
      2 O2         -7.4994   -4.7066   57.4500 O.3     1  ZINC001326371752   -0.3800
      3 C3         -8.7162   -3.9920   57.6755 C.3     1  ZINC001326371752    0.0500
      4 C4         -8.5512   -3.0739   58.8882 C.3     1  ZINC001326371752    0.1200
      5 N5         -9.8336   -2.4357   59.1955 N.pl3   1  ZINC001326371752   -0.2800
      6 N6        -10.9920   -2.8198   58.7749 N.2     1  ZINC001326371752   -0.0800
      7 N7        -11.9135   -2.0382   59.2277 N.2     1  ZINC001326371752   -0.2500
      8 C8        -11.3434   -1.1007   59.9760 C.2     1  ZINC001326371752   -0.0400
      9 C9        -10.0106   -1.3504   59.9700 C.2     1  ZINC001326371752    0.0000
     10 C10        -8.9825   -0.5324   60.7040 C.3     1  ZINC001326371752   -0.0600
     11 C11        -9.5972    0.8274   61.0615 C.3     1  ZINC001326371752    0.1200
     12 N12       -10.9489    0.6205   61.6019 N.am    1  ZINC001326371752   -0.6100
     13 C13       -11.2394    0.9462   62.8770 C.2     1  ZINC001326371752    0.6100
     14 O14       -12.3631    0.7689   63.3094 O.2     1  ZINC001326371752   -0.5100
     15 C15       -10.2008    1.5146   63.7440 C.2     1  ZINC001326371752   -0.3400
     16 C16       -10.1935    2.8813   64.0456 C.2     1  ZINC001326371752    0.2400
     17 N17        -9.2444    3.3579   64.8286 N.2     1  ZINC001326371752   -0.5100
     18 C18        -8.2984    2.5795   65.3372 C.2     1  ZINC001326371752    0.2900
     19 S19        -6.9718    2.9565   66.3691 S.3     1  ZINC001326371752    0.2500
     20 C20        -6.3640    1.2951   66.4440 C.2     1  ZINC001326371752   -0.2100
     21 C21        -7.1916    0.5839   65.6972 C.2     1  ZINC001326371752    0.0500
     22 N22        -8.2344    1.2443   65.0936 N.am    1  ZINC001326371752   -0.4600
     23 C23        -9.1938    0.6918   64.2942 C.2     1  ZINC001326371752    0.5500
     24 O24        -9.1783   -0.5029   64.0534 O.2     1  ZINC001326371752   -0.5000
     25 C25       -11.9803    0.0459   60.7194 C.3     1  ZINC001326371752    0.2000
     26 H26        -5.5075   -4.4908   56.9460 H       1  ZINC001326371752    0.0900
     27 H27        -6.6213   -3.3307   56.1832 H       1  ZINC001326371752    0.0500
     28 H28        -6.2037   -3.1631   57.9053 H       1  ZINC001326371752    0.0500
     29 H29        -8.9543   -3.3933   56.7963 H       1  ZINC001326371752    0.0600
     30 H30        -9.5238   -4.6997   57.8628 H       1  ZINC001326371752    0.0600
     31 H31        -8.2225   -3.6606   59.7460 H       1  ZINC001326371752    0.1200
     32 H32        -7.8084   -2.3080   58.6657 H       1  ZINC001326371752    0.1200
     33 H33        -8.6863   -1.0507   61.6160 H       1  ZINC001326371752    0.0900
     34 H34        -8.1111   -0.3832   60.0665 H       1  ZINC001326371752    0.1000
     35 H35        -8.9777    1.3216   61.8098 H       1  ZINC001326371752    0.1100
     36 H36        -9.6537    1.4478   60.1670 H       1  ZINC001326371752    0.0800
     37 H37       -10.9527    3.5357   63.6434 H       1  ZINC001326371752    0.1900
     38 H38        -5.5000    0.9383   66.9848 H       1  ZINC001326371752    0.2200
     39 H39        -7.0526   -0.4790   65.5662 H       1  ZINC001326371752    0.2000
     40 H40       -12.3219    0.7984   60.0086 H       1  ZINC001326371752    0.1000
     41 H41       -12.8203   -0.3125   61.3144 H       1  ZINC001326371752    0.1000
@<TRIPOS>BOND
     1     1     2    1
     2     1    26    1
     3     1    27    1
     4     1    28    1
     5     2     3    1
     6     3     4    1
     7     3    29    1
     8     3    30    1
     9     4     5    1
    10     4    31    1
    11     4    32    1
    12     5     9    1
    13     5     6    1
    14     6     7    2
    15     7     8    1
    16     8    25    1
    17     8     9    2
    18     9    10    1
    19    10    11    1
    20    10    33    1
    21    10    34    1
    22    11    12    1
    23    11    35    1
    24    11    36    1
    25    12    13   am
    26    12    25    1
    27    13    14    2
    28    13    15    1
    29    15    23    1
    30    15    16    2
    31    16    17    1
    32    16    37    1
    33    17    18    2
    34    18    22    1
    35    18    19    1
    36    19    20    1
    37    20    21    2
    38    20    38    1
    39    21    22    1
    40    21    39    1
    41    22    23   am
    42    23    24    2
    43    25    40    1
    44    25    41    1
@<TRIPOS>SUBSTRUCTURE
     1 ZINC001326371752        1 TEMP              0 ****  ****    0 ROOT


##########                                Name:    ZINC001289445798
##########                DOCK_Rotatable_Bonds:                  10
##########                         Heavy_Atoms:                  25
##########                    Molecular_Weight:             352.434
##########                DOCK_Rotatable_Bonds:                  10
##########                       Formal_Charge:          0.00999932
##########                     HBond_Acceptors:                   8
##########                        HBond_Donors:                   2
##########                         Heavy_Atoms:                  25
##########                          Grid_Score:          -37.736202
##########                     Grid_vdw_energy:          -35.387718
##########                      Grid_es_energy:           -2.348485
##########           Internal_energy_repulsive:           24.214197

@<TRIPOS>MOLECULE
ZINC001289445798
 53 54 1 0 0
SMALL
USER_CHARGES


@<TRIPOS>ATOM
      1 C1        -11.6556    2.4826   56.2679 C.3     1  ZINC001289445798   -0.1500
      2 C2        -12.9910    1.8875   56.7186 C.3     1  ZINC001289445798    0.0600
      3 O3        -12.8499    0.4757   56.8894 O.3     1  ZINC001289445798   -0.3700
      4 C4        -14.0464   -0.1809   57.3128 C.3     1  ZINC001289445798    0.1100
      5 H5        -14.7364    0.5535   57.7282 H       1  ZINC001289445798    0.0700
      6 C6        -13.7059   -1.2221   58.3811 C.3     1  ZINC001289445798   -0.1400
      7 C7        -13.0767   -0.5377   59.5671 C.2     1  ZINC001289445798    0.5400
      8 O8        -13.6611    0.3662   60.1261 O.2     1  ZINC001289445798   -0.5200
      9 N9        -11.8646   -0.9299   60.0067 N.am    1  ZINC001289445798   -0.6200
     10 C10       -11.0461   -2.0016   59.4208 C.3     1  ZINC001289445798    0.1000
     11 C11        -9.7363   -2.0743   60.2334 C.3     1  ZINC001289445798    0.1400
     12 H12        -9.8014   -2.8446   61.0018 H       1  ZINC001289445798    0.1200
     13 N13        -8.5923   -2.3194   59.3519 N.am    1  ZINC001289445798   -0.7200
     14 C14        -8.5795   -3.4027   58.5500 C.2     1  ZINC001289445798    0.6000
     15 O15        -9.5170   -4.1774   58.5593 O.2     1  ZINC001289445798   -0.5100
     16 C16        -7.4310   -3.6480   57.6630 C.2     1  ZINC001289445798   -0.0500
     17 C17        -7.4725   -4.1042   56.3570 C.2     1  ZINC001289445798   -0.1400
     18 C18        -6.1393   -4.1737   55.9468 C.2     1  ZINC001289445798    0.0000
     19 N19        -5.3907   -3.7850   56.9472 N.2     1  ZINC001289445798   -0.2700
     20 N20        -6.1106   -3.4655   57.9619 N.pl3   1  ZINC001289445798   -0.3800
     21 C21        -9.6472   -0.6647   60.8757 C.3     1  ZINC001289445798    0.0700
     22 H22        -9.2220    0.0565   60.1777 H       1  ZINC001289445798    0.0900
     23 O23        -8.8955   -0.7019   62.0905 O.3     1  ZINC001289445798   -0.3700
     24 C24        -9.3274    0.2444   63.0703 C.3     1  ZINC001289445798    0.0300
     25 C25       -11.1368   -0.3511   61.1507 C.3     1  ZINC001289445798    0.0800
     26 C26       -14.6992   -0.8738   56.1152 C.3     1  ZINC001289445798   -0.1100
     27 C27       -15.3804    0.1717   55.2300 C.3     1  ZINC001289445798   -0.1500
     28 C28       -13.6289   -1.6084   55.3052 C.3     1  ZINC001289445798   -0.1500
     29 H29       -11.3570    2.0303   55.3222 H       1  ZINC001289445798    0.0600
     30 H30       -11.7631    3.5594   56.1377 H       1  ZINC001289445798    0.0700
     31 H31       -10.8952    2.2821   57.0225 H       1  ZINC001289445798    0.0600
     32 H32       -13.2896    2.3397   57.6644 H       1  ZINC001289445798    0.0500
     33 H33       -13.7514    2.0881   55.9639 H       1  ZINC001289445798    0.0500
     34 H34       -14.6172   -1.7305   58.6963 H       1  ZINC001289445798    0.1100
     35 H35       -13.0074   -1.9504   57.9691 H       1  ZINC001289445798    0.1000
     36 H36       -11.5767   -2.9515   59.4869 H       1  ZINC001289445798    0.0800
     37 H37       -10.8238   -1.7707   58.3789 H       1  ZINC001289445798    0.0800
     38 H38        -7.8440   -1.7023   59.3452 H       1  ZINC001289445798    0.4000
     39 H39        -8.3497   -4.3534   55.7781 H       1  ZINC001289445798    0.1700
     40 H40        -5.7884   -4.4923   54.9763 H       1  ZINC001289445798    0.1900
     41 H41        -5.7686   -3.1495   58.8127 H       1  ZINC001289445798    0.4400
     42 H42        -8.7072    0.1527   63.9621 H       1  ZINC001289445798    0.0900
     43 H43        -9.2362    1.2527   62.6666 H       1  ZINC001289445798    0.0400
     44 H44       -10.3679    0.0495   63.3299 H       1  ZINC001289445798    0.0500
     45 H45       -11.2949    0.7262   61.1995 H       1  ZINC001289445798    0.0900
     46 H46       -11.4594   -0.8251   62.0777 H       1  ZINC001289445798    0.0900
     47 H47       -15.4414   -1.5892   56.4694 H       1  ZINC001289445798    0.0800
     48 H48       -14.6382    0.8870   54.8756 H       1  ZINC001289445798    0.0600
     49 H49       -15.8455   -0.3220   54.3766 H       1  ZINC001289445798    0.0600
     50 H50       -16.1430    0.6950   55.8069 H       1  ZINC001289445798    0.0600
     51 H51       -13.2116   -2.4177   55.9044 H       1  ZINC001289445798    0.0600
     52 H52       -14.0763   -2.0196   54.4004 H       1  ZINC001289445798    0.0600
     53 H53       -12.8362   -0.9112   55.0340 H       1  ZINC001289445798    0.0500
@<TRIPOS>BOND
     1     1     2    1
     2     1    29    1
     3     1    30    1
     4     1    31    1
     5     2     3    1
     6     2    32    1
     7     2    33    1
     8     3     4    1
     9     4     5    1
    10     4     6    1
    11     4    26    1
    12     6     7    1
    13     6    34    1
    14     6    35    1
    15     7     8    2
    16     7     9   am
    17     9    25    1
    18     9    10    1
    19    10    11    1
    20    10    36    1
    21    10    37    1
    22    11    12    1
    23    11    13    1
    24    11    21    1
    25    13    14   am
    26    13    38    1
    27    14    15    2
    28    14    16    1
    29    16    20    1
    30    16    17    2
    31    17    18    1
    32    17    39    1
    33    18    19    2
    34    18    40    1
    35    19    20    1
    36    20    41    1
    37    21    22    1
    38    21    23    1
    39    21    25    1
    40    23    24    1
    41    24    42    1
    42    24    43    1
    43    24    44    1
    44    25    45    1
    45    25    46    1
    46    26    27    1
    47    26    28    1
    48    26    47    1
    49    27    48    1
    50    27    49    1
    51    27    50    1
    52    28    51    1
    53    28    52    1
    54    28    53    1
@<TRIPOS>SUBSTRUCTURE
     1 ZINC001289445798        1 TEMP              0 ****  ****    0 ROOT


##########                                Name:    ZINC000533037883
##########                DOCK_Rotatable_Bonds:                   7
##########                         Heavy_Atoms:                  27
##########                    Molecular_Weight:             368.479
##########                DOCK_Rotatable_Bonds:                   7
##########                       Formal_Charge:          0.00999947
##########                     HBond_Acceptors:                   6
##########                        HBond_Donors:                   1
##########                         Heavy_Atoms:                  27
##########                          Grid_Score:          -37.703938
##########                     Grid_vdw_energy:          -33.600243
##########                      Grid_es_energy:           -4.103695
##########           Internal_energy_repulsive:           14.454469

@<TRIPOS>MOLECULE
ZINC000533037883
 55 58 1 0 0
SMALL
USER_CHARGES


@<TRIPOS>ATOM
      1 O1        -13.5088   -0.0514   61.9347 O.2     1  ZINC000533037883   -0.5900
      2 C2        -12.4776    0.2050   61.3437 C.2     1  ZINC000533037883    0.7100
      3 N3        -12.3388   -0.1419   60.0488 N.am    1  ZINC000533037883   -0.7500
      4 C4        -13.4282   -0.8335   59.3550 C.3     1  ZINC000533037883    0.1400
      5 C5        -13.2373   -2.3459   59.4860 C.3     1  ZINC000533037883   -0.0500
      6 C6        -12.1597   -2.8003   58.5355 C.2     1  ZINC000533037883   -0.2300
      7 C7        -10.8321   -2.8346   58.7948 C.2     1  ZINC000533037883    0.0600
      8 N8        -10.2089   -3.3023   57.6896 N.pl3   1  ZINC000533037883   -0.3200
      9 C9         -8.8283   -3.4933   57.5394 C.ar    1  ZINC000533037883    0.1600
     10 C10        -8.3114   -3.9013   56.3171 C.ar    1  ZINC000533037883   -0.1400
     11 C11        -6.9507   -4.0887   56.1721 C.ar    1  ZINC000533037883   -0.0900
     12 C12        -6.1034   -3.8707   57.2430 C.ar    1  ZINC000533037883   -0.1300
     13 C13        -6.6152   -3.4643   58.4615 C.ar    1  ZINC000533037883   -0.0900
     14 C14        -7.9743   -3.2693   58.6109 C.ar    1  ZINC000533037883   -0.1200
     15 N15       -11.1874   -3.5629   56.7216 N.2     1  ZINC000533037883   -0.2900
     16 C16       -12.3560   -3.2668   57.2310 C.2     1  ZINC000533037883    0.0700
     17 N17       -11.4755    0.8413   61.9820 N.am    1  ZINC000533037883   -0.6300
     18 C18       -10.2259    1.1634   61.2795 C.3     1  ZINC000533037883    0.1100
     19 C19        -9.9434    2.6608   61.4375 C.3     1  ZINC000533037883   -0.1400
     20 C20        -9.9391    3.0208   62.9251 C.3     1  ZINC000533037883   -0.1100
     21 C21       -11.3137    2.7224   63.5278 C.3     1  ZINC000533037883   -0.0900
     22 H22       -12.0754    3.2940   62.9976 H       1  ZINC000533037883    0.0800
     23 C23       -11.3187    3.1140   65.0069 C.3     1  ZINC000533037883   -0.1200
     24 H24       -10.6077    2.5087   65.5690 H       1  ZINC000533037883    0.0900
     25 C25       -11.0140    4.6271   65.1790 C.3     1  ZINC000533037883   -0.1500
     26 C26       -11.7523    4.9264   66.5079 C.3     1  ZINC000533037883    0.0500
     27 O27       -12.9398    4.1193   66.4674 O.3     1  ZINC000533037883   -0.3900
     28 C28       -12.7374    2.9906   65.6031 C.3     1  ZINC000533037883    0.0500
     29 C29       -11.6141    1.2312   63.3918 C.3     1  ZINC000533037883    0.1300
     30 H30       -11.5177    0.0662   59.5762 H       1  ZINC000533037883    0.4000
     31 H31       -14.3814   -0.5477   59.7995 H       1  ZINC000533037883    0.0700
     32 H32       -13.4213   -0.5564   58.3008 H       1  ZINC000533037883    0.0700
     33 H33       -12.9459   -2.5882   60.5080 H       1  ZINC000533037883    0.0800
     34 H34       -14.1717   -2.8523   59.2448 H       1  ZINC000533037883    0.0800
     35 H35       -10.3557   -2.5406   59.7184 H       1  ZINC000533037883    0.1800
     36 H36        -8.9728   -4.0724   55.4805 H       1  ZINC000533037883    0.1300
     37 H37        -6.5482   -4.4061   55.2215 H       1  ZINC000533037883    0.1300
     38 H38        -5.0399   -4.0186   57.1273 H       1  ZINC000533037883    0.1300
     39 H39        -5.9510   -3.2949   59.2961 H       1  ZINC000533037883    0.1300
     40 H40        -8.3734   -2.9516   59.5628 H       1  ZINC000533037883    0.1400
     41 H41       -13.3075   -3.3606   56.7288 H       1  ZINC000533037883    0.1900
     42 H42        -9.4058    0.5894   61.7108 H       1  ZINC000533037883    0.0700
     43 H43       -10.3282    0.9205   60.2218 H       1  ZINC000533037883    0.0800
     44 H44        -8.9714    2.8954   61.0037 H       1  ZINC000533037883    0.0800
     45 H45       -10.7180    3.2330   60.9270 H       1  ZINC000533037883    0.0700
     46 H46        -9.1810    2.4302   63.4394 H       1  ZINC000533037883    0.0700
     47 H47        -9.7139    4.0809   63.0414 H       1  ZINC000533037883    0.0700
     48 H48        -9.9428    4.8035   65.2763 H       1  ZINC000533037883    0.0800
     49 H49       -11.4328    5.2081   64.3574 H       1  ZINC000533037883    0.0800
     50 H50       -11.1313    4.6434   67.3578 H       1  ZINC000533037883    0.0600
     51 H51       -12.0148    5.9829   66.5653 H       1  ZINC000533037883    0.0900
     52 H52       -13.4752    3.0022   64.8008 H       1  ZINC000533037883    0.0700
     53 H53       -12.8255    2.0667   66.1747 H       1  ZINC000533037883    0.0700
     54 H54       -12.6311    1.0310   63.7293 H       1  ZINC000533037883    0.1000
     55 H55       -10.9078    0.6597   63.9940 H       1  ZINC000533037883    0.0700
@<TRIPOS>BOND
     1     1     2    2
     2     2     3   am
     3     2    17   am
     4     3     4    1
     5     3    30    1
     6     4     5    1
     7     4    31    1
     8     4    32    1
     9     5     6    1
    10     5    33    1
    11     5    34    1
    12     6    16    1
    13     6     7    2
    14     7     8    1
    15     7    35    1
    16     8     9    1
    17     8    15    1
    18     9    14   ar
    19     9    10   ar
    20    10    11   ar
    21    10    36    1
    22    11    12   ar
    23    11    37    1
    24    12    13   ar
    25    12    38    1
    26    13    14   ar
    27    13    39    1
    28    14    40    1
    29    15    16    2
    30    16    41    1
    31    17    29    1
    32    17    18    1
    33    18    19    1
    34    18    42    1
    35    18    43    1
    36    19    20    1
    37    19    44    1
    38    19    45    1
    39    20    21    1
    40    20    46    1
    41    20    47    1
    42    21    22    1
    43    21    23    1
    44    21    29    1
    45    23    24    1
    46    23    28    1
    47    23    25    1
    48    25    26    1
    49    25    48    1
    50    25    49    1
    51    26    27    1
    52    26    50    1
    53    26    51    1
    54    27    28    1
    55    28    52    1
    56    28    53    1
    57    29    54    1
    58    29    55    1
@<TRIPOS>SUBSTRUCTURE
     1 ZINC000533037883        1 TEMP              0 ****  ****    0 ROOT


##########                                Name:    ZINC000279452407
##########                DOCK_Rotatable_Bonds:                   6
##########                         Heavy_Atoms:                  24
##########                    Molecular_Weight:              375.47
##########                DOCK_Rotatable_Bonds:                   6
##########                       Formal_Charge:          0.00999929
##########                     HBond_Acceptors:                  10
##########                        HBond_Donors:                   3
##########                         Heavy_Atoms:                  24
##########                          Grid_Score:          -37.615162
##########                     Grid_vdw_energy:          -33.151585
##########                      Grid_es_energy:           -4.463578
##########           Internal_energy_repulsive:           27.188160

@<TRIPOS>MOLECULE
ZINC000279452407
 45 47 1 0 0
SMALL
USER_CHARGES


@<TRIPOS>ATOM
      1 C1        -13.5873    0.4248   61.1486 C.3     1  ZINC000279452407   -0.1600
      2 C2        -13.4125    1.8506   61.6755 C.3     1  ZINC000279452407    0.0600
      3 H3        -13.0763    1.8245   62.7120 H       1  ZINC000279452407    0.0700
      4 O4        -14.6590    2.5635   61.5826 O.3     1  ZINC000279452407   -0.3700
      5 C5        -14.3370    3.9398   61.2856 C.3     1  ZINC000279452407    0.0500
      6 C6        -13.1672    3.8291   60.2731 C.3     1  ZINC000279452407   -0.1400
      7 C7        -12.3902    2.6052   60.8130 C.3     1  ZINC000279452407    0.0700
      8 C8        -11.9261    1.7296   59.6518 C.3     1  ZINC000279452407    0.1100
      9 N9        -11.0434    0.6782   60.1848 N.am    1  ZINC000279452407   -0.6300
     10 C10       -11.2314   -0.6168   59.8618 C.2     1  ZINC000279452407    0.7200
     11 O11       -12.1412   -0.9323   59.1197 O.2     1  ZINC000279452407   -0.5800
     12 N12       -10.4106   -1.5619   60.3614 N.am    1  ZINC000279452407   -0.7500
     13 C13       -10.6150   -2.9694   60.0103 C.3     1  ZINC000279452407    0.2000
     14 C14        -9.7609   -3.3190   58.8188 C.2     1  ZINC000279452407   -0.1700
     15 C15       -10.2154   -3.5321   57.5830 C.2     1  ZINC000279452407   -0.1400
     16 C16        -9.2417   -3.8397   56.6484 C.2     1  ZINC000279452407    0.0100
     17 C17        -7.9965   -3.8762   57.1253 C.2     1  ZINC000279452407   -0.7900
     18 S18        -6.5559   -4.2376   56.1771 S.o2    1  ZINC000279452407    2.7300
     19 N19        -5.2572   -3.6365   57.0103 N.am    1  ZINC000279452407   -1.2500
     20 O20        -6.4164   -5.6517   56.1823 O.2     1  ZINC000279452407   -0.9600
     21 O21        -6.6575   -3.4710   54.9850 O.2     1  ZINC000279452407   -0.9500
     22 S22        -8.0117   -3.5007   58.8435 S.3     1  ZINC000279452407    0.2500
     23 C23        -9.9494    1.0857   61.0808 C.3     1  ZINC000279452407    0.0700
     24 C24       -10.5329    1.9692   62.1893 C.3     1  ZINC000279452407    0.0400
     25 O25       -11.2837    3.0334   61.5972 O.3     1  ZINC000279452407   -0.3600
     26 H26       -12.6658   -0.1359   61.3052 H       1  ZINC000279452407    0.0700
     27 H27       -14.4040   -0.0620   61.6816 H       1  ZINC000279452407    0.0600
     28 H28       -13.8166    0.4567   60.0834 H       1  ZINC000279452407    0.0800
     29 H29       -15.1904    4.4442   60.8322 H       1  ZINC000279452407    0.1000
     30 H30       -14.0161    4.4618   62.1870 H       1  ZINC000279452407    0.0700
     31 H31       -13.5402    3.6423   59.2660 H       1  ZINC000279452407    0.1000
     32 H32       -12.5458    4.7243   60.2968 H       1  ZINC000279452407    0.1000
     33 H33       -12.7901    1.2728   59.1693 H       1  ZINC000279452407    0.1200
     34 H34       -11.3786    2.3369   58.9311 H       1  ZINC000279452407    0.0800
     35 H35        -9.6847   -1.3101   60.9535 H       1  ZINC000279452407    0.4000
     36 H36       -10.3353   -3.5990   60.8549 H       1  ZINC000279452407    0.1000
     37 H37       -11.6643   -3.1343   59.7660 H       1  ZINC000279452407    0.0900
     38 H38       -11.2636   -3.4699   57.3307 H       1  ZINC000279452407    0.1600
     39 H39        -9.4728   -4.0356   55.6117 H       1  ZINC000279452407    0.1600
     40 H40        -4.3621   -3.7343   56.6496 H       1  ZINC000279452407    0.4200
     41 H41        -5.3916   -3.1867   57.8592 H       1  ZINC000279452407    0.4200
     42 H42        -9.4883    0.2018   61.5214 H       1  ZINC000279452407    0.0900
     43 H43        -9.2051    1.6485   60.5176 H       1  ZINC000279452407    0.0900
     44 H44       -11.1870    1.3718   62.8245 H       1  ZINC000279452407    0.0600
     45 H45        -9.7226    2.3846   62.7883 H       1  ZINC000279452407    0.1100
@<TRIPOS>BOND
     1     1     2    1
     2     1    26    1
     3     1    27    1
     4     1    28    1
     5     2     3    1
     6     2     7    1
     7     2     4    1
     8     4     5    1
     9     5     6    1
    10     5    29    1
    11     5    30    1
    12     6     7    1
    13     6    31    1
    14     6    32    1
    15     7    25    1
    16     7     8    1
    17     8     9    1
    18     8    33    1
    19     8    34    1
    20     9    10   am
    21     9    23    1
    22    10    11    2
    23    10    12   am
    24    12    13    1
    25    12    35    1
    26    13    14    1
    27    13    36    1
    28    13    37    1
    29    14    22    1
    30    14    15    2
    31    15    16    1
    32    15    38    1
    33    16    17    2
    34    16    39    1
    35    17    18    1
    36    17    22    1
    37    18    19   am
    38    18    20    2
    39    18    21    2
    40    19    40    1
    41    19    41    1
    42    23    24    1
    43    23    42    1
    44    23    43    1
    45    24    25    1
    46    24    44    1
    47    24    45    1
@<TRIPOS>SUBSTRUCTURE
     1 ZINC000279452407        1 TEMP              0 ****  ****    0 ROOT


##########                                Name:     oleObject14.pdb
##########                DOCK_Rotatable_Bonds:                   9
##########                         Heavy_Atoms:                  33
##########                    Molecular_Weight:             484.424
##########                DOCK_Rotatable_Bonds:                   9
##########                       Formal_Charge:         0.000299782
##########                     HBond_Acceptors:                   7
##########                        HBond_Donors:                   1
##########                         Heavy_Atoms:                  33
##########                          Grid_Score:          -37.582066
##########                     Grid_vdw_energy:          -37.814075
##########                      Grid_es_energy:            0.232009
##########           Internal_energy_repulsive:           13.264143

@<TRIPOS>MOLECULE
oleObject14.pdb
 60 63 1 0 0
SMALL
NO_CHARGES


@<TRIPOS>ATOM
      1 C          -7.5667   -4.0656   57.1067 C.ar    1  UNL         0.0422
      2 C          -7.2734   -3.7119   58.4331 C.ar    1  UNL        -0.0408
      3 C          -8.2950   -3.2540   59.2819 C.ar    1  UNL        -0.0288
      4 C          -9.6194   -3.1474   58.8057 C.ar    1  UNL         0.0937
      5 C          -9.9050   -3.5052   57.4722 C.ar    1  UNL         0.0723
      6 C          -8.8813   -3.9627   56.6257 C.ar    1  UNL        -0.0221
      7 CL        -11.5366   -3.3883   56.8397 Cl      1  UNL        -0.0814
      8 O         -10.6525   -2.7019   59.6077 O.3     1  UNL        -0.3432
      9 C         -11.3848   -1.4884   59.3614 C.3     1  UNL         0.0661
     10 C         -11.6624   -0.8213   60.7245 C.3     1  UNL         0.0222
     11 N         -12.0870    0.5920   60.6136 N.4     1  UNL        -0.3010
     12 C         -12.9735    1.0490   61.7093 C.3     1  UNL        -0.0010
     13 C         -13.4741    2.4928   61.4811 C.3     1  UNL        -0.0289
     14 C         -12.3213    3.4985   61.2455 C.3     1  UNL         0.0382
     15 C         -11.3553    2.9555   60.1624 C.3     1  UNL        -0.0289
     16 C         -10.9295    1.4875   60.4000 C.3     1  UNL        -0.0010
     17 C         -11.5893    3.8495   62.5645 C.2     1  UNL         0.2156
     18 O         -11.8609    4.8488   63.2049 O.2     1  UNL        -0.2774
     19 N         -10.6245    2.9875   63.0698 N.am    1  UNL        -0.3025
     20 C          -9.8278    3.1494   64.3005 C.3     1  UNL         0.0900
     21 C          -9.0812    1.8775   64.6983 C.ar    1  UNL        -0.0217
     22 C          -9.2026    0.6942   63.9420 C.ar    1  UNL        -0.0568
     23 C          -8.5179   -0.4696   64.3283 C.ar    1  UNL        -0.0619
     24 C          -7.7034   -0.4593   65.4715 C.ar    1  UNL        -0.0622
     25 C          -7.5724    0.7168   66.2265 C.ar    1  UNL        -0.0619
     26 C          -8.2572    1.8804   65.8399 C.ar    1  UNL        -0.0568
     27 C          -8.8666    4.3299   64.1987 C.ar    1  UNL         0.0652
     28 C          -8.4864    5.0763   65.3333 C.ar    1  UNL        -0.0383
     29 C          -7.6050    6.1575   65.1740 C.ar    1  UNL        -0.0588
     30 C          -7.1351    6.4560   63.8857 C.ar    1  UNL        -0.0438
     31 C          -7.5662    5.6617   62.8093 C.ar    1  UNL         0.0272
     32 N          -8.4128    4.6231   62.9604 N.ar    1  UNL        -0.2590
     33 CL         -6.2914   -4.6358   56.0516 Cl      1  UNL        -0.0843
     34 H          -6.2557   -3.7922   58.8047 H       1  UNL         0.0639
     35 H          -8.0455   -2.9866   60.3036 H       1  UNL         0.0652
     36 H          -9.1073   -4.2367   55.5991 H       1  UNL         0.0655
     37 H         -12.3288   -1.7175   58.8524 H       1  UNL         0.0586
     38 H         -10.7930   -0.8076   58.7360 H       1  UNL         0.0586
     39 H         -10.7381   -0.8740   61.3146 H       1  UNL         0.0455
     40 H         -12.4272   -1.4007   61.2581 H       1  UNL         0.0455
     41 H         -12.4361    0.9985   62.6654 H       1  UNL         0.0431
     42 H         -13.8530    0.3999   61.7895 H       1  UNL         0.0431
     43 H         -14.0865    2.8090   62.3335 H       1  UNL         0.0288
     44 H         -14.1333    2.4979   60.6035 H       1  UNL         0.0288
     45 H         -12.7615    4.4080   60.8281 H       1  UNL         0.0402
     46 H         -10.4663    3.5956   60.0963 H       1  UNL         0.0288
     47 H         -11.8552    3.0133   59.1868 H       1  UNL         0.0288
     48 H         -10.2610    1.4383   61.2687 H       1  UNL         0.0431
     49 H         -10.3546    1.1491   59.5284 H       1  UNL         0.0431
     50 H         -10.5288    2.1062   62.5816 H       1  UNL         0.1504
     51 H         -10.5347    3.3942   65.1037 H       1  UNL         0.0624
     52 H          -9.8346    0.6708   63.0591 H       1  UNL         0.0626
     53 H          -8.6197   -1.3787   63.7424 H       1  UNL         0.0623
     54 H          -7.1735   -1.3594   65.7701 H       1  UNL         0.0623
     55 H          -6.9398    0.7273   67.1094 H       1  UNL         0.0623
     56 H          -8.1476    2.7862   66.4299 H       1  UNL         0.0626
     57 H          -8.8663    4.8243   66.3187 H       1  UNL         0.0643
     58 H          -7.2939    6.7504   66.0294 H       1  UNL         0.0624
     59 H          -6.4523    7.2847   63.7228 H       1  UNL         0.0639
     60 H          -7.2236    5.8632   61.7950 H       1  UNL         0.0840
@<TRIPOS>BOND
     1     1     2   ar
     2     1     6   ar
     3     1    33    1
     4     2     3   ar
     5     2    34    1
     6     3     4   ar
     7     3    35    1
     8     4     5   ar
     9     4     8    1
    10     5     6   ar
    11     5     7    1
    12     6    36    1
    13     8     9    1
    14     9    10    1
    15     9    37    1
    16     9    38    1
    17    10    11    1
    18    10    39    1
    19    10    40    1
    20    11    12    1
    21    11    16    1
    22    12    13    1
    23    12    41    1
    24    12    42    1
    25    13    14    1
    26    13    43    1
    27    13    44    1
    28    14    15    1
    29    14    17    1
    30    14    45    1
    31    15    16    1
    32    15    46    1
    33    15    47    1
    34    16    48    1
    35    16    49    1
    36    17    18    2
    37    17    19   am
    38    19    20    1
    39    19    50    1
    40    20    21    1
    41    20    27    1
    42    20    51    1
    43    21    22   ar
    44    21    26   ar
    45    22    23   ar
    46    22    52    1
    47    23    24   ar
    48    23    53    1
    49    24    25   ar
    50    24    54    1
    51    25    26   ar
    52    25    55    1
    53    26    56    1
    54    27    28   ar
    55    27    32   ar
    56    28    29   ar
    57    28    57    1
    58    29    30   ar
    59    29    58    1
    60    30    31   ar
    61    30    59    1
    62    31    32   ar
    63    31    60    1
@<TRIPOS>SUBSTRUCTURE
     1 UNL         1 TEMP              0 ****  ****    0 ROOT


##########                                Name:    ZINC001058772245
##########                DOCK_Rotatable_Bonds:                  11
##########                         Heavy_Atoms:                  22
##########                    Molecular_Weight:             335.375
##########                DOCK_Rotatable_Bonds:                  11
##########                       Formal_Charge:          0.00999964
##########                     HBond_Acceptors:                   9
##########                        HBond_Donors:                   2
##########                         Heavy_Atoms:                  22
##########                          Grid_Score:          -37.569077
##########                     Grid_vdw_energy:          -33.842819
##########                      Grid_es_energy:           -3.726259
##########           Internal_energy_repulsive:           70.244324

@<TRIPOS>MOLECULE
ZINC001058772245
 41 41 1 0 0
SMALL
USER_CHARGES


@<TRIPOS>ATOM
      1 C1        -12.2554    1.5648   59.6383 C.3     1  ZINC001058772245   -0.1700
      2 C2        -12.5475    0.8527   60.9606 C.3     1  ZINC001058772245   -0.1400
      3 C3        -13.5447    1.6791   61.7752 C.3     1  ZINC001058772245   -0.1500
      4 C4        -13.1328   -0.5073   60.6802 C.2     1  ZINC001058772245    0.5300
      5 O5        -14.2670   -0.7624   61.0260 O.2     1  ZINC001058772245   -0.5200
      6 N6        -12.3960   -1.4402   60.0450 N.am    1  ZINC001058772245   -0.5900
      7 C7        -12.9652   -2.7623   59.7725 C.3     1  ZINC001058772245    0.0800
      8 C8        -14.0752   -2.6341   58.7274 C.3     1  ZINC001058772245    0.0400
      9 O9        -14.7852   -3.8706   58.6324 O.3     1  ZINC001058772245   -0.5700
     10 C10       -11.0261   -1.1320   59.6272 C.3     1  ZINC001058772245    0.1100
     11 C11       -10.0577   -2.1135   60.2904 C.3     1  ZINC001058772245    0.1000
     12 N12        -8.9087   -2.3365   59.4093 N.am    1  ZINC001058772245   -0.7100
     13 C13        -8.8284   -3.4667   58.6796 C.2     1  ZINC001058772245    0.6000
     14 O14        -9.7106   -4.3010   58.7514 O.2     1  ZINC001058772245   -0.5300
     15 C15        -7.6726   -3.6917   57.7952 C.2     1  ZINC001058772245    0.0000
     16 C16        -6.3908   -3.5783   58.2106 C.2     1  ZINC001058772245   -0.2200
     17 S17        -5.3527   -3.9168   56.8953 S.3     1  ZINC001058772245    0.2300
     18 C18        -6.6887   -4.1899   55.8673 C.2     1  ZINC001058772245    0.0000
     19 N19        -7.7924   -4.0321   56.5093 N.2     1  ZINC001058772245   -0.4400
     20 C20       -11.2482    0.6953   61.7530 C.3     1  ZINC001058772245    0.2900
     21 F21       -10.2716    1.5439   61.2205 F       1  ZINC001058772245   -0.1900
     22 F22       -11.4756    1.0288   63.0926 F       1  ZINC001058772245   -0.2000
     23 H23       -11.5815    2.4024   59.8178 H       1  ZINC001058772245    0.0800
     24 H24       -11.7889    0.8654   58.9444 H       1  ZINC001058772245    0.0700
     25 H25       -13.1876    1.9336   59.2104 H       1  ZINC001058772245    0.0900
     26 H26       -14.5409    1.5731   61.3457 H       1  ZINC001058772245    0.0800
     27 H27       -13.5539    1.3246   62.8059 H       1  ZINC001058772245    0.0700
     28 H28       -13.2498    2.7282   61.7544 H       1  ZINC001058772245    0.0900
     29 H29       -12.1847   -3.4228   59.3945 H       1  ZINC001058772245    0.0900
     30 H30       -13.3780   -3.1768   60.6922 H       1  ZINC001058772245    0.1200
     31 H31       -14.7630   -1.8420   59.0233 H       1  ZINC001058772245    0.0600
     32 H32       -13.6366   -2.3918   57.7594 H       1  ZINC001058772245    0.0700
     33 H33       -15.4827   -3.8732   57.9626 H       1  ZINC001058772245    0.3800
     34 H34       -10.9480   -1.2208   58.5437 H       1  ZINC001058772245    0.1000
     35 H35       -10.7749   -0.1148   59.9275 H       1  ZINC001058772245    0.0900
     36 H36        -9.7136   -1.6999   61.2384 H       1  ZINC001058772245    0.0700
     37 H37       -10.5666   -3.0604   60.4704 H       1  ZINC001058772245    0.0700
     38 H38        -8.2058   -1.6706   59.3510 H       1  ZINC001058772245    0.4100
     39 H39        -6.0747   -3.3169   59.2096 H       1  ZINC001058772245    0.1900
     40 H40        -6.6171   -4.4607   54.8244 H       1  ZINC001058772245    0.2100
     41 H41       -10.9063   -0.3376   61.6888 H       1  ZINC001058772245    0.1200
@<TRIPOS>BOND
     1     1     2    1
     2     1    23    1
     3     1    24    1
     4     1    25    1
     5     2     3    1
     6     2     4    1
     7     2    20    1
     8     3    26    1
     9     3    27    1
    10     3    28    1
    11     4     5    2
    12     4     6   am
    13     6     7    1
    14     6    10    1
    15     7     8    1
    16     7    29    1
    17     7    30    1
    18     8     9    1
    19     8    31    1
    20     8    32    1
    21     9    33    1
    22    10    11    1
    23    10    34    1
    24    10    35    1
    25    11    12    1
    26    11    36    1
    27    11    37    1
    28    12    13   am
    29    12    38    1
    30    13    14    2
    31    13    15    1
    32    15    19    1
    33    15    16    2
    34    16    17    1
    35    16    39    1
    36    17    18    1
    37    18    19    2
    38    18    40    1
    39    20    21    1
    40    20    22    1
    41    20    41    1
@<TRIPOS>SUBSTRUCTURE
     1 ZINC001058772245        1 TEMP              0 ****  ****    0 ROOT


##########                                Name:    ZINC001090961577
##########                DOCK_Rotatable_Bonds:                   9
##########                         Heavy_Atoms:                  24
##########                    Molecular_Weight:             352.458
##########                DOCK_Rotatable_Bonds:                   9
##########                       Formal_Charge:                0.02
##########                     HBond_Acceptors:                   8
##########                        HBond_Donors:                   1
##########                         Heavy_Atoms:                  24
##########                          Grid_Score:          -37.535519
##########                     Grid_vdw_energy:          -37.468250
##########                      Grid_es_energy:           -0.067268
##########           Internal_energy_repulsive:           11.601976

@<TRIPOS>MOLECULE
ZINC001090961577
 48 49 1 0 0
SMALL
USER_CHARGES


@<TRIPOS>ATOM
      1 C1         -6.5919   -3.8610   55.2660 C.3     1  ZINC001090961577   -0.1400
      2 C2         -6.2621   -4.5838   56.5736 C.3     1  ZINC001090961577   -0.0900
      3 S3         -6.9562   -3.6559   57.9692 S.3     1  ZINC001090961577   -0.2700
      4 C4         -8.7446   -3.7789   57.6919 C.3     1  ZINC001090961577   -0.0700
      5 C5         -9.4853   -3.0257   58.7986 C.3     1  ZINC001090961577   -0.1200
      6 C6        -10.9598   -2.9995   58.4884 C.2     1  ZINC001090961577    0.5400
      7 O7        -11.4308   -3.8045   57.7131 O.2     1  ZINC001090961577   -0.5300
      8 N8        -11.7551   -2.0814   59.0724 N.am    1  ZINC001090961577   -0.6200
      9 C9        -13.2036   -1.9437   58.8609 C.3     1  ZINC001090961577    0.1100
     10 C10       -13.6887   -0.7825   59.7542 C.3     1  ZINC001090961577   -0.1100
     11 H11       -13.7398    0.1461   59.1857 H       1  ZINC001090961577    0.0900
     12 C12       -15.0477   -1.1095   60.3763 C.3     1  ZINC001090961577   -0.1400
     13 C13       -12.5875   -0.6990   60.8440 C.3     1  ZINC001090961577    0.1500
     14 H14       -12.7612   -1.4319   61.6320 H       1  ZINC001090961577    0.1200
     15 N15       -12.4996    0.6538   61.3992 N.pl3   1  ZINC001090961577   -0.6700
     16 C16       -11.6092    0.9251   62.4167 C.ar    1  ZINC001090961577    0.5900
     17 N17       -12.0520    1.5144   63.5199 N.ar    1  ZINC001090961577   -0.5700
     18 C18       -11.2323    1.7910   64.5162 C.ar    1  ZINC001090961577    0.2700
     19 C19        -9.8775    1.4528   64.3954 C.ar    1  ZINC001090961577   -0.3000
     20 C20        -8.9256    1.7425   65.4833 C.2     1  ZINC001090961577    0.5300
     21 O21        -8.5972    2.8894   65.7139 O.2     1  ZINC001090961577   -0.5100
     22 O22        -8.4199    0.7354   66.2219 O.3     1  ZINC001090961577   -0.3600
     23 C23        -7.8445   -0.3862   65.5013 C.3     1  ZINC001090961577    0.0400
     24 C24        -9.4514    0.8316   63.2135 C.ar    1  ZINC001090961577    0.2600
     25 N25       -10.3357    0.5844   62.2659 N.ar    1  ZINC001090961577   -0.5700
     26 C26       -11.3179   -1.0532   60.0342 C.3     1  ZINC001090961577    0.0900
     27 H27        -6.1748   -4.4185   54.4274 H       1  ZINC001090961577    0.0700
     28 H28        -7.6737   -3.7900   55.1531 H       1  ZINC001090961577    0.0700
     29 H29        -6.1622   -2.8595   55.2861 H       1  ZINC001090961577    0.0700
     30 H30        -6.6918   -5.5853   56.5535 H       1  ZINC001090961577    0.0800
     31 H31        -5.1803   -4.6548   56.6866 H       1  ZINC001090961577    0.0800
     32 H32        -8.9934   -3.3413   56.7251 H       1  ZINC001090961577    0.0900
     33 H33        -9.0428   -4.8274   57.7037 H       1  ZINC001090961577    0.0900
     34 H34        -9.3235   -3.5289   59.7519 H       1  ZINC001090961577    0.1000
     35 H35        -9.1084   -2.0047   58.8582 H       1  ZINC001090961577    0.1000
     36 H36       -13.4052   -1.7155   57.8144 H       1  ZINC001090961577    0.0800
     37 H37       -13.7091   -2.8665   59.1454 H       1  ZINC001090961577    0.0800
     38 H38       -14.9677   -2.0239   60.9641 H       1  ZINC001090961577    0.0600
     39 H39       -15.3586   -0.2884   61.0224 H       1  ZINC001090961577    0.0600
     40 H40       -15.7850   -1.2490   59.5858 H       1  ZINC001090961577    0.0700
     41 H41       -13.0678    1.3588   61.0511 H       1  ZINC001090961577    0.4200
     42 H42       -11.5998    2.2713   65.4111 H       1  ZINC001090961577    0.1800
     43 H43        -7.4751   -1.1245   66.2132 H       1  ZINC001090961577    0.1100
     44 H44        -8.6068   -0.8411   64.8688 H       1  ZINC001090961577    0.0700
     45 H45        -7.0198   -0.0351   64.8811 H       1  ZINC001090961577    0.0700
     46 H46        -8.4156    0.5555   63.0820 H       1  ZINC001090961577    0.1800
     47 H47       -10.5457   -1.4495   60.6935 H       1  ZINC001090961577    0.0900
     48 H48       -10.9502   -0.1756   59.5023 H       1  ZINC001090961577    0.0800
@<TRIPOS>BOND
     1     1     2    1
     2     1    27    1
     3     1    28    1
     4     1    29    1
     5     2     3    1
     6     2    30    1
     7     2    31    1
     8     3     4    1
     9     4     5    1
    10     4    32    1
    11     4    33    1
    12     5     6    1
    13     5    34    1
    14     5    35    1
    15     6     7    2
    16     6     8   am
    17     8    26    1
    18     8     9    1
    19     9    10    1
    20     9    36    1
    21     9    37    1
    22    10    11    1
    23    10    12    1
    24    10    13    1
    25    12    38    1
    26    12    39    1
    27    12    40    1
    28    13    14    1
    29    13    15    1
    30    13    26    1
    31    15    16    1
    32    15    41    1
    33    16    25   ar
    34    16    17   ar
    35    17    18   ar
    36    18    19   ar
    37    18    42    1
    38    19    20    1
    39    19    24   ar
    40    20    21    2
    41    20    22    1
    42    22    23    1
    43    23    43    1
    44    23    44    1
    45    23    45    1
    46    24    25   ar
    47    24    46    1
    48    26    47    1
    49    26    48    1
@<TRIPOS>SUBSTRUCTURE
     1 ZINC001090961577        1 TEMP              0 ****  ****    0 ROOT


##########                                Name:    ZINC000000992968
##########                DOCK_Rotatable_Bonds:                   8
##########                         Heavy_Atoms:                  27
##########                    Molecular_Weight:             384.772
##########                DOCK_Rotatable_Bonds:                   8
##########                       Formal_Charge:           0.0199999
##########                     HBond_Acceptors:                   7
##########                        HBond_Donors:                   0
##########                         Heavy_Atoms:                  27
##########                          Grid_Score:          -37.509911
##########                     Grid_vdw_energy:          -35.651867
##########                      Grid_es_energy:           -1.858045
##########           Internal_energy_repulsive:            7.618844

@<TRIPOS>MOLECULE
ZINC000000992968
 40 42 1 0 0
SMALL
USER_CHARGES


@<TRIPOS>ATOM
      1 O1         -9.1015   -4.0452   59.4164 O.2     1  ZINC000000992968   -0.4600
      2 C2         -9.2942   -3.8247   58.2359 C.2     1  ZINC000000992968    0.5600
      3 O3        -10.5390   -3.5453   57.7961 O.3     1  ZINC000000992968   -0.2900
      4 C4        -11.2608   -2.6175   58.4740 C.ar    1  ZINC000000992968    0.1200
      5 C5        -10.6515   -1.4435   58.9032 C.ar    1  ZINC000000992968   -0.1300
      6 C6        -11.3789   -0.4996   59.5914 C.ar    1  ZINC000000992968   -0.0400
      7 C7        -12.7350   -0.7228   59.8590 C.ar    1  ZINC000000992968   -0.1600
      8 C8        -13.5164    0.2816   60.5929 C.2     1  ZINC000000992968    0.4000
      9 O9        -14.7274    0.2153   60.6081 O.2     1  ZINC000000992968   -0.4200
     10 C10       -12.8134    1.3943   61.3268 C.3     1  ZINC000000992968    0.0200
     11 O11       -11.9372    0.8296   62.3376 O.3     1  ZINC000000992968   -0.3300
     12 C12       -11.2381    1.6972   63.0949 C.2     1  ZINC000000992968    0.5100
     13 O13       -11.5539    2.8699   63.1235 O.2     1  ZINC000000992968   -0.5000
     14 C14       -10.0881    1.2226   63.8902 C.ar    1  ZINC000000992968   -0.1300
     15 C15        -9.7328    1.8794   65.0705 C.ar    1  ZINC000000992968   -0.0500
     16 C16        -8.6582    1.4311   65.8090 C.ar    1  ZINC000000992968   -0.1200
     17 C17        -7.9312    0.3319   65.3822 C.ar    1  ZINC000000992968    0.0000
     18 Cl18       -6.5792   -0.2261   66.3172 Cl      1  ZINC000000992968   -0.0500
     19 C19        -8.2788   -0.3241   64.2127 C.ar    1  ZINC000000992968   -0.1200
     20 C20        -9.3546    0.1113   63.4683 C.ar    1  ZINC000000992968   -0.0400
     21 C21       -13.3439   -1.9064   59.4243 C.ar    1  ZINC000000992968   -0.0600
     22 C22       -12.6088   -2.8415   58.7322 C.ar    1  ZINC000000992968   -0.1200
     23 C23        -8.1744   -3.8566   57.2927 C.2     1  ZINC000000992968   -0.0700
     24 C24        -8.2724   -3.8754   55.9298 C.2     1  ZINC000000992968   -0.0900
     25 C25        -6.9611   -3.9037   55.4315 C.2     1  ZINC000000992968   -0.2300
     26 C26        -6.1300   -3.9010   56.4977 C.2     1  ZINC000000992968    0.0200
     27 O27        -6.8645   -3.8668   57.6168 O.3     1  ZINC000000992968   -0.1500
     28 H28        -9.6053   -1.2723   58.6962 H       1  ZINC000000992968    0.1400
     29 H29       -10.9045    0.4116   59.9248 H       1  ZINC000000992968    0.1500
     30 H30       -12.2241    1.9796   60.6211 H       1  ZINC000000992968    0.1100
     31 H31       -13.5521    2.0378   61.8047 H       1  ZINC000000992968    0.1100
     32 H32       -10.2985    2.7369   65.4038 H       1  ZINC000000992968    0.1500
     33 H33        -8.3826    1.9381   66.7218 H       1  ZINC000000992968    0.1500
     34 H34        -7.7083   -1.1807   63.8854 H       1  ZINC000000992968    0.1500
     35 H35        -9.6248   -0.4012   62.5569 H       1  ZINC000000992968    0.1500
     36 H36       -14.3896   -2.0834   59.6285 H       1  ZINC000000992968    0.1400
     37 H37       -13.0775   -3.7546   58.3963 H       1  ZINC000000992968    0.1400
     38 H38        -9.1828   -3.8696   55.3488 H       1  ZINC000000992968    0.1700
     39 H39        -6.6704   -3.9239   54.3917 H       1  ZINC000000992968    0.1700
     40 H40        -5.0511   -3.9195   56.4539 H       1  ZINC000000992968    0.2200
@<TRIPOS>BOND
     1     1     2    2
     2     2     3    1
     3     2    23    1
     4     3     4    1
     5     4    22   ar
     6     4     5   ar
     7     5     6   ar
     8     5    28    1
     9     6     7   ar
    10     6    29    1
    11     7     8    1
    12     7    21   ar
    13     8     9    2
    14     8    10    1
    15    10    11    1
    16    10    30    1
    17    10    31    1
    18    11    12    1
    19    12    13    2
    20    12    14    1
    21    14    20   ar
    22    14    15   ar
    23    15    16   ar
    24    15    32    1
    25    16    17   ar
    26    16    33    1
    27    17    18    1
    28    17    19   ar
    29    19    20   ar
    30    19    34    1
    31    20    35    1
    32    21    22   ar
    33    21    36    1
    34    22    37    1
    35    23    27    1
    36    23    24    2
    37    24    25    1
    38    24    38    1
    39    25    26    2
    40    25    39    1
    41    26    27    1
    42    26    40    1
@<TRIPOS>SUBSTRUCTURE
     1 ZINC000000992968        1 TEMP              0 ****  ****    0 ROOT


##########                                Name:    ZINC001109848453
##########                DOCK_Rotatable_Bonds:                   8
##########                         Heavy_Atoms:                  24
##########                    Molecular_Weight:             328.337
##########                DOCK_Rotatable_Bonds:                   8
##########                       Formal_Charge:          0.00999966
##########                     HBond_Acceptors:                  11
##########                        HBond_Donors:                   2
##########                         Heavy_Atoms:                  24
##########                          Grid_Score:          -37.354179
##########                     Grid_vdw_energy:          -36.972290
##########                      Grid_es_energy:           -0.381889
##########           Internal_energy_repulsive:            7.139572

@<TRIPOS>MOLECULE
ZINC001109848453
 40 43 1 0 0
SMALL
USER_CHARGES


@<TRIPOS>ATOM
      1 O1        -11.4006   -2.2531   58.1204 O.2     1  ZINC001109848453   -0.5000
      2 C2        -10.4845   -2.4926   58.8783 C.2     1  ZINC001109848453    0.5000
      3 C3         -9.8446   -3.8569   58.8795 C.3     1  ZINC001109848453    0.1100
      4 N4         -8.4484   -3.7419   58.4512 N.pl3   1  ZINC001109848453   -0.3700
      5 C5         -7.9792   -3.8490   57.1960 C.2     1  ZINC001109848453    0.2600
      6 N6         -6.6817   -3.6844   57.2321 N.2     1  ZINC001109848453   -0.5400
      7 C7         -6.2880   -3.4708   58.4869 C.2     1  ZINC001109848453    0.2000
      8 N8         -7.3348   -3.4917   59.2696 N.2     1  ZINC001109848453   -0.2900
      9 N9        -10.0351   -1.5368   59.7156 N.am    1  ZINC001109848453   -0.7300
     10 C10       -10.6572   -0.2105   59.7144 C.3     1  ZINC001109848453    0.1700
     11 H11       -10.6450    0.1958   58.7030 H       1  ZINC001109848453    0.1000
     12 C12        -9.8780    0.7192   60.6469 C.3     1  ZINC001109848453    0.1200
     13 N13        -9.8397    0.1410   61.9925 N.pl3   1  ZINC001109848453   -0.6800
     14 C14        -9.3176    0.8729   63.0462 C.2     1  ZINC001109848453    0.4900
     15 N15        -9.3886    2.1899   63.0413 N.2     1  ZINC001109848453   -0.5300
     16 C16        -8.8907    2.9103   64.0495 C.2     1  ZINC001109848453    0.1400
     17 C17        -8.2973    2.3224   65.1087 C.2     1  ZINC001109848453   -0.0500
     18 N18        -8.1962    0.9601   65.1659 N.pl3   1  ZINC001109848453   -0.1800
     19 N19        -7.7008    0.1330   66.0165 N.2     1  ZINC001109848453   -0.1000
     20 N20        -7.8668   -1.0696   65.5863 N.2     1  ZINC001109848453   -0.0400
     21 N21        -8.4731   -1.0513   64.4475 N.2     1  ZINC001109848453   -0.2600
     22 C22        -8.7087    0.2143   64.1403 C.2     1  ZINC001109848453    0.1000
     23 C23       -12.1035   -0.3250   60.2006 C.3     1  ZINC001109848453   -0.1800
     24 C24       -12.9187    0.9657   60.3027 C.3     1  ZINC001109848453   -0.1700
     25 C25       -13.2139   -0.0394   59.1875 C.3     1  ZINC001109848453   -0.1700
     26 H26        -9.8827   -4.2754   59.8853 H       1  ZINC001109848453    0.1300
     27 H27       -10.3824   -4.5111   58.1932 H       1  ZINC001109848453    0.1200
     28 H28        -8.5700   -4.0386   56.3120 H       1  ZINC001109848453    0.2200
     29 H29        -5.2697   -3.3035   58.8053 H       1  ZINC001109848453    0.2200
     30 H30        -9.2998   -1.7272   60.3190 H       1  ZINC001109848453    0.4000
     31 H31        -8.8609    0.8389   60.2738 H       1  ZINC001109848453    0.1000
     32 H32       -10.3686    1.6919   60.6832 H       1  ZINC001109848453    0.0900
     33 H33       -10.1799   -0.7545   62.1455 H       1  ZINC001109848453    0.4200
     34 H34        -8.9644    3.9873   64.0160 H       1  ZINC001109848453    0.2000
     35 H35        -7.9019    2.9274   65.9112 H       1  ZINC001109848453    0.1900
     36 H36       -12.2890   -1.0982   60.9461 H       1  ZINC001109848453    0.1100
     37 H37       -13.6407    1.0419   61.1157 H       1  ZINC001109848453    0.1000
     38 H38       -12.4247    1.8963   60.0236 H       1  ZINC001109848453    0.1000
     39 H39       -12.9142    0.2301   58.1748 H       1  ZINC001109848453    0.1200
     40 H40       -14.1302   -0.6244   59.2668 H       1  ZINC001109848453    0.0900
@<TRIPOS>BOND
     1     1     2    2
     2     2     3    1
     3     2     9   am
     4     3     4    1
     5     3    26    1
     6     3    27    1
     7     4     8    1
     8     4     5    1
     9     5     6    2
    10     5    28    1
    11     6     7    1
    12     7     8    2
    13     7    29    1
    14     9    10    1
    15     9    30    1
    16    10    11    1
    17    10    12    1
    18    10    23    1
    19    12    13    1
    20    12    31    1
    21    12    32    1
    22    13    14    1
    23    13    33    1
    24    14    22    1
    25    14    15    2
    26    15    16    1
    27    16    17    2
    28    16    34    1
    29    17    18    1
    30    17    35    1
    31    18    22    1
    32    18    19    1
    33    19    20    2
    34    20    21    1
    35    21    22    2
    36    23    25    1
    37    23    24    1
    38    23    36    1
    39    24    25    1
    40    24    37    1
    41    24    38    1
    42    25    39    1
    43    25    40    1
@<TRIPOS>SUBSTRUCTURE
     1 ZINC001109848453        1 TEMP              0 ****  ****    0 ROOT


##########                                Name:    ZINC000532153088
##########                DOCK_Rotatable_Bonds:                  11
##########                         Heavy_Atoms:                  29
##########                    Molecular_Weight:             402.484
##########                DOCK_Rotatable_Bonds:                  11
##########                       Formal_Charge:          -0.0200009
##########                     HBond_Acceptors:                   6
##########                        HBond_Donors:                   1
##########                         Heavy_Atoms:                  29
##########                          Grid_Score:          -37.104298
##########                     Grid_vdw_energy:          -35.783333
##########                      Grid_es_energy:           -1.320966
##########           Internal_energy_repulsive:           20.413599

@<TRIPOS>MOLECULE
ZINC000532153088
 57 59 1 0 0
SMALL
USER_CHARGES


@<TRIPOS>ATOM
      1 C1         -6.7179    5.3422   56.5267 C.3     1  ZINC000532153088   -0.1800
      2 C2         -6.2829    4.0231   57.1684 C.3     1  ZINC000532153088    0.0800
      3 C3         -4.7721    3.8488   57.0018 C.3     1  ZINC000532153088   -0.1500
      4 O4         -6.6102    4.0392   58.5593 O.3     1  ZINC000532153088   -0.3800
      5 C5         -8.0139    4.0198   58.8264 C.3     1  ZINC000532153088    0.1000
      6 C6         -8.2425    4.0635   60.3153 C.ar    1  ZINC000532153088   -0.0700
      7 C7         -7.3886    4.7889   61.1246 C.ar    1  ZINC000532153088   -0.1000
      8 C8         -7.5984    4.8290   62.4906 C.ar    1  ZINC000532153088   -0.1100
      9 C9         -8.6622    4.1441   63.0468 C.ar    1  ZINC000532153088   -0.1200
     10 C10        -9.5170    3.4192   62.2371 C.ar    1  ZINC000532153088   -0.1000
     11 C11        -9.3097    3.3826   60.8712 C.ar    1  ZINC000532153088   -0.1100
     12 C12       -10.2414    2.5925   59.9885 C.3     1  ZINC000532153088    0.1600
     13 N13        -9.6946    1.2495   59.7798 N.am    1  ZINC000532153088   -0.7300
     14 C14        -9.9878    0.2602   60.6469 C.2     1  ZINC000532153088    0.5100
     15 O15       -10.7032    0.4822   61.6007 O.2     1  ZINC000532153088   -0.5000
     16 C16        -9.4268   -1.1218   60.4311 C.3     1  ZINC000532153088    0.0300
     17 N17       -10.3322   -1.8879   59.5642 N.3     1  ZINC000532153088   -0.4800
     18 C18        -9.9338   -3.3006   59.5046 C.3     1  ZINC000532153088    0.1000
     19 C19        -8.9303   -3.4933   58.3971 C.ar    1  ZINC000532153088   -0.1300
     20 C20        -7.5786   -3.5026   58.6838 C.ar    1  ZINC000532153088   -0.0600
     21 C21        -6.6568   -3.6798   57.6690 C.ar    1  ZINC000532153088   -0.1700
     22 C22        -7.0872   -3.8480   56.3639 C.ar    1  ZINC000532153088    0.1300
     23 F23        -6.1862   -4.0216   55.3723 F       1  ZINC000532153088   -0.1300
     24 C24        -8.4412   -3.8389   56.0754 C.ar    1  ZINC000532153088   -0.2000
     25 C25        -9.3633   -3.6667   57.0930 C.ar    1  ZINC000532153088    0.1600
     26 F26       -10.6849   -3.6575   56.8131 F       1  ZINC000532153088   -0.1100
     27 C27       -11.7260   -1.7522   60.0079 C.3     1  ZINC000532153088    0.0200
     28 C28       -12.6641   -0.9093   59.1417 C.3     1  ZINC000532153088   -0.2200
     29 C29       -12.8055   -2.4325   59.1636 C.3     1  ZINC000532153088   -0.1700
     30 H30        -6.4684    5.3300   55.4659 H       1  ZINC000532153088    0.0700
     31 H31        -7.7943    5.4664   56.6455 H       1  ZINC000532153088    0.0600
     32 H32        -6.2010    6.1701   57.0121 H       1  ZINC000532153088    0.0700
     33 H33        -6.7999    3.1952   56.6830 H       1  ZINC000532153088    0.0600
     34 H34        -4.2551    4.6766   57.4872 H       1  ZINC000532153088    0.0600
     35 H35        -4.4622    2.9090   57.4589 H       1  ZINC000532153088    0.0600
     36 H36        -4.5225    3.8365   55.9409 H       1  ZINC000532153088    0.0700
     37 H37        -8.4843    4.8858   58.3609 H       1  ZINC000532153088    0.0600
     38 H38        -8.4487    3.1072   58.4187 H       1  ZINC000532153088    0.0600
     39 H39        -6.5574    5.3241   60.6899 H       1  ZINC000532153088    0.1300
     40 H40        -6.9308    5.3953   63.1230 H       1  ZINC000532153088    0.1200
     41 H41        -8.8258    4.1749   64.1139 H       1  ZINC000532153088    0.1300
     42 H42       -10.3481    2.8837   62.6718 H       1  ZINC000532153088    0.1300
     43 H43       -11.2180    2.5168   60.4668 H       1  ZINC000532153088    0.0800
     44 H44       -10.3455    3.0957   59.0274 H       1  ZINC000532153088    0.0800
     45 H45        -9.1215    1.0723   59.0175 H       1  ZINC000532153088    0.4000
     46 H46        -8.4478   -1.0467   59.9579 H       1  ZINC000532153088    0.0700
     47 H47        -9.3284   -1.6279   61.3914 H       1  ZINC000532153088    0.1100
     48 H48        -9.4867   -3.5924   60.4549 H       1  ZINC000532153088    0.0900
     49 H49       -10.8113   -3.9177   59.3113 H       1  ZINC000532153088    0.0500
     50 H50        -7.2419   -3.3710   59.7016 H       1  ZINC000532153088    0.1400
     51 H51        -5.6006   -3.6865   57.8941 H       1  ZINC000532153088    0.1400
     52 H52        -8.7779   -3.9701   55.0576 H       1  ZINC000532153088    0.1500
     53 H53       -11.8751   -1.7232   61.0871 H       1  ZINC000532153088    0.1200
     54 H54       -13.4307   -0.3253   59.6511 H       1  ZINC000532153088    0.1000
     55 H55       -12.2471   -0.4554   58.2426 H       1  ZINC000532153088    0.1000
     56 H56       -12.4814   -2.9808   58.2789 H       1  ZINC000532153088    0.1000
     57 H57       -13.6650   -2.8508   59.6875 H       1  ZINC000532153088    0.1000
@<TRIPOS>BOND
     1     1     2    1
     2     1    30    1
     3     1    31    1
     4     1    32    1
     5     2     3    1
     6     2     4    1
     7     2    33    1
     8     3    34    1
     9     3    35    1
    10     3    36    1
    11     4     5    1
    12     5     6    1
    13     5    37    1
    14     5    38    1
    15     6    11   ar
    16     6     7   ar
    17     7     8   ar
    18     7    39    1
    19     8     9   ar
    20     8    40    1
    21     9    10   ar
    22     9    41    1
    23    10    11   ar
    24    10    42    1
    25    11    12    1
    26    12    13    1
    27    12    43    1
    28    12    44    1
    29    13    14   am
    30    13    45    1
    31    14    15    2
    32    14    16    1
    33    16    17    1
    34    16    46    1
    35    16    47    1
    36    17    18    1
    37    17    27    1
    38    18    19    1
    39    18    48    1
    40    18    49    1
    41    19    25   ar
    42    19    20   ar
    43    20    21   ar
    44    20    50    1
    45    21    22   ar
    46    21    51    1
    47    22    23    1
    48    22    24   ar
    49    24    25   ar
    50    24    52    1
    51    25    26    1
    52    27    29    1
    53    27    28    1
    54    27    53    1
    55    28    29    1
    56    28    54    1
    57    28    55    1
    58    29    56    1
    59    29    57    1
@<TRIPOS>SUBSTRUCTURE
     1 ZINC000532153088        1 TEMP              0 ****  ****    0 ROOT


##########                                Name:    ZINC001000186632
##########                DOCK_Rotatable_Bonds:                   7
##########                         Heavy_Atoms:                  23
##########                    Molecular_Weight:             342.379
##########                DOCK_Rotatable_Bonds:                   7
##########                       Formal_Charge:          -0.0100001
##########                     HBond_Acceptors:                  11
##########                        HBond_Donors:                   2
##########                         Heavy_Atoms:                  23
##########                          Grid_Score:          -37.040264
##########                     Grid_vdw_energy:          -30.237223
##########                      Grid_es_energy:           -6.803040
##########           Internal_energy_repulsive:            9.406617

@<TRIPOS>MOLECULE
ZINC001000186632
 41 43 1 0 0
SMALL
USER_CHARGES


@<TRIPOS>ATOM
      1 O1        -10.3817   -3.6604   57.1884 O.2     1  ZINC001000186632   -0.5200
      2 C2         -9.8776   -3.1654   58.1742 C.2     1  ZINC001000186632    0.5300
      3 C3         -8.5199   -3.6264   58.6383 C.3     1  ZINC001000186632   -0.0500
      4 C4         -7.5948   -3.7368   57.4538 C.2     1  ZINC001000186632    0.2400
      5 N5         -7.9604   -3.9987   56.2264 N.2     1  ZINC001000186632   -0.3000
      6 N6         -6.7913   -4.0082   55.4482 N.pl3   1  ZINC001000186632   -0.4800
      7 C7         -5.7755   -3.7433   56.2878 C.2     1  ZINC001000186632    0.2700
      8 N8         -6.2724   -3.5775   57.4867 N.2     1  ZINC001000186632   -0.5400
      9 N9        -10.5289   -2.1991   58.8513 N.am    1  ZINC001000186632   -0.7100
     10 C10       -11.8487   -1.7510   58.4001 C.3     1  ZINC001000186632    0.1100
     11 C11       -12.9711   -1.9991   59.4242 C.3     1  ZINC001000186632    0.1000
     12 N12       -12.6633   -0.6502   59.9379 N.am    1  ZINC001000186632   -0.6500
     13 C13       -12.8258   -0.0315   61.1242 C.2     1  ZINC001000186632    0.5100
     14 O14       -13.3316   -0.6247   62.0533 O.2     1  ZINC001000186632   -0.5100
     15 C15       -12.3788    1.3973   61.2962 C.3     1  ZINC001000186632    0.1500
     16 N16       -11.5019    1.4973   62.4655 N.am    1  ZINC001000186632   -0.9800
     17 C17       -10.1521    0.9276   62.5928 C.3     1  ZINC001000186632    0.0800
     18 C18        -9.3045    1.7830   63.5537 C.3     1  ZINC001000186632   -0.1300
     19 C19       -10.2476    2.0527   64.7616 C.3     1  ZINC001000186632   -0.6000
     20 S20       -11.8481    2.2855   63.8966 S.o2    1  ZINC001000186632    2.5700
     21 O21       -12.0471    3.6462   63.5388 O.2     1  ZINC001000186632   -0.9400
     22 O22       -12.8765    1.5119   64.4993 O.2     1  ZINC001000186632   -0.9600
     23 C23       -12.1063   -0.2509   58.6309 C.3     1  ZINC001000186632    0.0900
     24 H24        -8.1151   -2.9061   59.3495 H       1  ZINC001000186632    0.1300
     25 H25        -8.6117   -4.6000   59.1197 H       1  ZINC001000186632    0.1200
     26 H26        -6.7293   -4.1735   54.4944 H       1  ZINC001000186632    0.4400
     27 H27        -4.7316   -3.6755   56.0189 H       1  ZINC001000186632    0.2200
     28 H28       -10.1239   -1.8005   59.6375 H       1  ZINC001000186632    0.4100
     29 H29       -12.0901   -2.0877   57.3919 H       1  ZINC001000186632    0.1200
     30 H30       -13.9620   -2.0838   58.9781 H       1  ZINC001000186632    0.1000
     31 H31       -12.7518   -2.7990   60.1313 H       1  ZINC001000186632    0.0900
     32 H32       -11.8363    1.7180   60.4068 H       1  ZINC001000186632    0.1100
     33 H33       -13.2504    2.0358   61.4401 H       1  ZINC001000186632    0.1100
     34 H34       -10.2238   -0.0883   62.9814 H       1  ZINC001000186632    0.0800
     35 H35        -9.6754    0.9055   61.6128 H       1  ZINC001000186632    0.0900
     36 H36        -8.4208    1.2322   63.8757 H       1  ZINC001000186632    0.1100
     37 H37        -9.0178    2.7206   63.0773 H       1  ZINC001000186632    0.1000
     38 H38       -10.2808    1.1955   65.4341 H       1  ZINC001000186632    0.1400
     39 H39        -9.9557    2.9576   65.2946 H       1  ZINC001000186632    0.1400
     40 H40       -11.1965    0.3447   58.7046 H       1  ZINC001000186632    0.0900
     41 H41       -12.8432    0.1779   57.9517 H       1  ZINC001000186632    0.1100
@<TRIPOS>BOND
     1     1     2    2
     2     2     3    1
     3     2     9   am
     4     3     4    1
     5     3    24    1
     6     3    25    1
     7     4     8    1
     8     4     5    2
     9     5     6    1
    10     6     7    1
    11     6    26    1
    12     7     8    2
    13     7    27    1
    14     9    10    1
    15     9    28    1
    16    10    23    1
    17    10    11    1
    18    10    29    1
    19    11    12    1
    20    11    30    1
    21    11    31    1
    22    12    13   am
    23    12    23    1
    24    13    14    2
    25    13    15    1
    26    15    16    1
    27    15    32    1
    28    15    33    1
    29    16    20   am
    30    16    17    1
    31    17    18    1
    32    17    34    1
    33    17    35    1
    34    18    19    1
    35    18    36    1
    36    18    37    1
    37    19    20    1
    38    19    38    1
    39    19    39    1
    40    20    21    2
    41    20    22    2
    42    23    40    1
    43    23    41    1
@<TRIPOS>SUBSTRUCTURE
     1 ZINC001000186632        1 TEMP              0 ****  ****    0 ROOT


##########                                Name:    ZINC001591898574
##########                DOCK_Rotatable_Bonds:                  10
##########                         Heavy_Atoms:                  26
##########                    Molecular_Weight:             383.434
##########                DOCK_Rotatable_Bonds:                  10
##########                       Formal_Charge:         5.96046e-08
##########                     HBond_Acceptors:                  13
##########                        HBond_Donors:                   3
##########                         Heavy_Atoms:                  26
##########                          Grid_Score:          -36.959221
##########                     Grid_vdw_energy:          -31.613771
##########                      Grid_es_energy:           -5.345450
##########           Internal_energy_repulsive:            8.359472

@<TRIPOS>MOLECULE
ZINC001591898574
 47 48 1 0 0
SMALL
USER_CHARGES


@<TRIPOS>ATOM
      1 C1        -12.5343   -3.4545   57.6249 C.3     1  ZINC001591898574   -0.1100
      2 C2        -11.1652   -3.0993   58.1452 C.ar    1  ZINC001591898574    0.2300
      3 C3        -10.0319   -3.6054   57.5338 C.ar    1  ZINC001591898574   -0.2400
      4 C4         -8.7829   -3.2499   58.0487 C.ar    1  ZINC001591898574    0.3000
      5 C5         -7.5376   -3.7661   57.4282 C.2     1  ZINC001591898574    0.2100
      6 N6         -6.3023   -3.5115   57.8120 N.2     1  ZINC001591898574   -0.2500
      7 N7         -5.5054   -4.1445   57.0215 N.pl3   1  ZINC001591898574   -0.2200
      8 N8         -6.1960   -4.7920   56.1492 N.2     1  ZINC001591898574   -0.0400
      9 N9         -7.4500   -4.5867   56.3716 N.2     1  ZINC001591898574   -0.2500
     10 N10        -8.7267   -2.4412   59.1038 N.ar    1  ZINC001591898574   -0.5500
     11 C11        -9.8362   -1.9790   59.6589 C.ar    1  ZINC001591898574    0.5800
     12 N12        -9.7425   -1.1396   60.7555 N.pl3   1  ZINC001591898574   -0.7000
     13 C13       -10.9163   -0.3862   61.2037 C.3     1  ZINC001591898574    0.1400
     14 C14       -10.5182    0.5417   62.3533 C.3     1  ZINC001591898574   -0.1500
     15 C15       -11.7459    1.3222   62.8271 C.3     1  ZINC001591898574    0.1200
     16 N16       -11.3544    2.2486   63.8923 N.am    1  ZINC001591898574   -0.7300
     17 C17       -12.2516    2.6176   64.8279 C.2     1  ZINC001591898574    0.4900
     18 O18       -13.3835    2.1839   64.7871 O.2     1  ZINC001591898574   -0.5300
     19 C19       -11.8484    3.5691   65.9248 C.3     1  ZINC001591898574    0.1000
     20 N20       -12.0989    4.9464   65.4930 N.am    1  ZINC001591898574   -0.9800
     21 C21       -11.0530    5.6965   64.7932 C.3     1  ZINC001591898574    0.1000
     22 S22       -13.5645    5.6555   65.7959 S.o2    1  ZINC001591898574    2.6100
     23 C23       -13.7166    5.6261   67.6032 C.3     1  ZINC001591898574   -0.6600
     24 O24       -13.4116    6.9892   65.3299 O.2     1  ZINC001591898574   -0.9500
     25 O25       -14.5090    4.7756   65.2016 O.2     1  ZINC001591898574   -0.9600
     26 N26       -11.0339   -2.2955   59.1885 N.ar    1  ZINC001591898574   -0.5600
     27 H27       -12.8359   -2.7280   56.8703 H       1  ZINC001591898574    0.0900
     28 H28       -12.5074   -4.4496   57.1809 H       1  ZINC001591898574    0.0900
     29 H29       -13.2498   -3.4426   58.4471 H       1  ZINC001591898574    0.0900
     30 H30       -10.1110   -4.2603   56.6787 H       1  ZINC001591898574    0.1600
     31 H31        -4.5369   -4.1346   57.0753 H       1  ZINC001591898574    0.4800
     32 H32        -8.8997   -1.0503   61.2273 H       1  ZINC001591898574    0.4200
     33 H33       -11.3050    0.2070   60.3759 H       1  ZINC001591898574    0.0700
     34 H34       -11.6843   -1.0798   61.5458 H       1  ZINC001591898574    0.0700
     35 H35       -10.1237   -0.0509   63.1786 H       1  ZINC001591898574    0.0800
     36 H36        -9.7547    1.2394   62.0093 H       1  ZINC001591898574    0.0800
     37 H37       -12.1636    1.8846   61.9919 H       1  ZINC001591898574    0.0700
     38 H38       -12.4942    0.6267   63.2072 H       1  ZINC001591898574    0.0700
     39 H39       -10.4495    2.5964   63.9243 H       1  ZINC001591898574    0.4000
     40 H40       -12.4309    3.3578   66.8214 H       1  ZINC001591898574    0.1200
     41 H41       -10.7878    3.4439   66.1427 H       1  ZINC001591898574    0.1300
     42 H42       -11.1474    5.5358   63.7192 H       1  ZINC001591898574    0.0600
     43 H43       -11.1594    6.7589   65.0123 H       1  ZINC001591898574    0.0700
     44 H44       -10.0741    5.3528   65.1273 H       1  ZINC001591898574    0.0700
     45 H45       -12.8938    6.1872   68.0462 H       1  ZINC001591898574    0.1300
     46 H46       -14.6642    6.0789   67.8955 H       1  ZINC001591898574    0.1200
     47 H47       -13.6834    4.5946   67.9540 H       1  ZINC001591898574    0.1300
@<TRIPOS>BOND
     1     1     2    1
     2     1    27    1
     3     1    28    1
     4     1    29    1
     5     2    26   ar
     6     2     3   ar
     7     3     4   ar
     8     3    30    1
     9     4     5    1
    10     4    10   ar
    11     5     9    1
    12     5     6    2
    13     6     7    1
    14     7     8    1
    15     7    31    1
    16     8     9    2
    17    10    11   ar
    18    11    12    1
    19    11    26   ar
    20    12    13    1
    21    12    32    1
    22    13    14    1
    23    13    33    1
    24    13    34    1
    25    14    15    1
    26    14    35    1
    27    14    36    1
    28    15    16    1
    29    15    37    1
    30    15    38    1
    31    16    17   am
    32    16    39    1
    33    17    18    2
    34    17    19    1
    35    19    20    1
    36    19    40    1
    37    19    41    1
    38    20    21    1
    39    20    22   am
    40    21    42    1
    41    21    43    1
    42    21    44    1
    43    22    23    1
    44    22    24    2
    45    22    25    2
    46    23    45    1
    47    23    46    1
    48    23    47    1
@<TRIPOS>SUBSTRUCTURE
     1 ZINC001591898574        1 TEMP              0 ****  ****    0 ROOT


##########                                Name:    ZINC000499369364
##########                DOCK_Rotatable_Bonds:                   9
##########                         Heavy_Atoms:                  25
##########                    Molecular_Weight:             384.527
##########                DOCK_Rotatable_Bonds:                   9
##########                       Formal_Charge:        -5.88596e-07
##########                     HBond_Acceptors:                  10
##########                        HBond_Donors:                   1
##########                         Heavy_Atoms:                  25
##########                          Grid_Score:          -36.891289
##########                     Grid_vdw_energy:          -34.162949
##########                      Grid_es_energy:           -2.728342
##########           Internal_energy_repulsive:           23.597673

@<TRIPOS>MOLECULE
ZINC000499369364
 49 51 1 0 0
SMALL
USER_CHARGES


@<TRIPOS>ATOM
      1 C1        -11.6311    4.4511   67.0206 C.3     1  ZINC000499369364   -0.1500
      2 C2        -12.3212    4.6862   65.6754 C.3     1  ZINC000499369364   -0.1000
      3 C3        -11.6337    5.8410   64.9444 C.3     1  ZINC000499369364   -0.1500
      4 C4        -12.2279    3.4172   64.8258 C.3     1  ZINC000499369364    0.1500
      5 H5        -12.7177    2.5943   65.3465 H       1  ZINC000499369364    0.0900
      6 C6        -12.9179    3.6521   63.4806 C.3     1  ZINC000499369364   -0.1700
      7 N7        -10.8194    3.0830   64.6003 N.am    1  ZINC000499369364   -0.7200
      8 C8        -10.4757    1.8388   64.2122 C.2     1  ZINC000499369364    0.5100
      9 O9        -11.3327    0.9964   64.0482 O.2     1  ZINC000499369364   -0.5100
     10 C10        -9.0268    1.4946   63.9820 C.3     1  ZINC000499369364    0.1200
     11 H11        -8.5418    2.3365   63.4881 H       1  ZINC000499369364    0.1200
     12 C12        -8.3476    1.2630   65.3510 C.3     1  ZINC000499369364   -0.0800
     13 S13        -8.3999   -0.5743   65.4745 S.3     1  ZINC000499369364   -0.2400
     14 C14        -8.2353   -0.8269   63.6587 C.3     1  ZINC000499369364    0.1400
     15 N15        -8.9550    0.3343   63.1071 N.am    1  ZINC000499369364   -0.6000
     16 C16        -9.5064    0.3254   61.8774 C.2     1  ZINC000499369364    0.5600
     17 O17       -10.0885    1.3070   61.4667 O.2     1  ZINC000499369364   -0.5000
     18 C18        -9.3998   -0.9042   61.0127 C.3     1  ZINC000499369364   -0.1500
     19 S19       -10.8415   -1.0020   59.9227 S.3     1  ZINC000499369364    0.1300
     20 C20       -10.4042   -2.4134   58.9628 C.2     1  ZINC000499369364    0.2000
     21 N21        -9.3922   -3.2247   59.1821 N.2     1  ZINC000499369364   -0.3400
     22 N22        -9.3586   -4.1520   58.2943 N.2     1  ZINC000499369364   -0.0300
     23 N23       -10.3277   -4.0059   57.4569 N.2     1  ZINC000499369364   -0.0800
     24 N24       -11.0499   -2.8705   57.8640 N.pl3   1  ZINC000499369364   -0.3300
     25 C25       -12.2404   -2.2990   57.2298 C.3     1  ZINC000499369364    0.0500
     26 C26       -13.4744   -3.1952   57.1069 C.3     1  ZINC000499369364   -0.1500
     27 C27       -13.4609   -2.0461   58.1171 C.3     1  ZINC000499369364   -0.1600
     28 H28       -11.6974    5.3551   67.6259 H       1  ZINC000499369364    0.0600
     29 H29       -12.1208    3.6283   67.5413 H       1  ZINC000499369364    0.0600
     30 H30       -10.5832    4.2023   66.8527 H       1  ZINC000499369364    0.0600
     31 H31       -13.3691    4.9349   65.8432 H       1  ZINC000499369364    0.0800
     32 H32       -11.7001    6.7451   65.5497 H       1  ZINC000499369364    0.0600
     33 H33       -10.5858    5.5923   64.7765 H       1  ZINC000499369364    0.0600
     34 H34       -12.1253    6.0084   63.9860 H       1  ZINC000499369364    0.0500
     35 H35       -12.4282    4.4749   62.9598 H       1  ZINC000499369364    0.0600
     36 H36       -12.8514    2.7481   62.8753 H       1  ZINC000499369364    0.0600
     37 H37       -13.9659    3.9008   63.6483 H       1  ZINC000499369364    0.0700
     38 H38       -10.1341    3.7571   64.7303 H       1  ZINC000499369364    0.4000
     39 H39        -7.3198    1.6259   65.3446 H       1  ZINC000499369364    0.1200
     40 H40        -8.9195    1.7259   66.1552 H       1  ZINC000499369364    0.1300
     41 H41        -7.1873   -0.8118   63.3596 H       1  ZINC000499369364    0.1100
     42 H42        -8.7124   -1.7581   63.3530 H       1  ZINC000499369364    0.1200
     43 H43        -8.4926   -0.8478   60.4110 H       1  ZINC000499369364    0.1300
     44 H44        -9.3617   -1.7910   61.6452 H       1  ZINC000499369364    0.1300
     45 H45       -12.0494   -1.5915   56.4229 H       1  ZINC000499369364    0.1600
     46 H46       -14.0955   -3.0775   56.2190 H       1  ZINC000499369364    0.1200
     47 H47       -13.4004   -4.2099   57.4980 H       1  ZINC000499369364    0.1200
     48 H48       -13.3780   -2.3049   59.1727 H       1  ZINC000499369364    0.1100
     49 H49       -14.0731   -1.1724   57.8937 H       1  ZINC000499369364    0.1200
@<TRIPOS>BOND
     1     1     2    1
     2     1    28    1
     3     1    29    1
     4     1    30    1
     5     2     3    1
     6     2     4    1
     7     2    31    1
     8     3    32    1
     9     3    33    1
    10     3    34    1
    11     4     5    1
    12     4     6    1
    13     4     7    1
    14     6    35    1
    15     6    36    1
    16     6    37    1
    17     7     8   am
    18     7    38    1
    19     8     9    2
    20     8    10    1
    21    10    11    1
    22    10    15    1
    23    10    12    1
    24    12    13    1
    25    12    39    1
    26    12    40    1
    27    13    14    1
    28    14    15    1
    29    14    41    1
    30    14    42    1
    31    15    16   am
    32    16    17    2
    33    16    18    1
    34    18    19    1
    35    18    43    1
    36    18    44    1
    37    19    20    1
    38    20    24    1
    39    20    21    2
    40    21    22    1
    41    22    23    2
    42    23    24    1
    43    24    25    1
    44    25    27    1
    45    25    26    1
    46    25    45    1
    47    26    27    1
    48    26    46    1
    49    26    47    1
    50    27    48    1
    51    27    49    1
@<TRIPOS>SUBSTRUCTURE
     1 ZINC000499369364        1 TEMP              0 ****  ****    0 ROOT


##########                                Name:    ZINC000433533595
##########                DOCK_Rotatable_Bonds:                  10
##########                         Heavy_Atoms:                  24
##########                    Molecular_Weight:             397.312
##########                DOCK_Rotatable_Bonds:                  10
##########                       Formal_Charge:          0.00999916
##########                     HBond_Acceptors:                   5
##########                        HBond_Donors:                   1
##########                         Heavy_Atoms:                  24
##########                          Grid_Score:          -36.853344
##########                     Grid_vdw_energy:          -36.738529
##########                      Grid_es_energy:           -0.114815
##########           Internal_energy_repulsive:           26.304113

@<TRIPOS>MOLECULE
ZINC000433533595
 49 50 1 0 0
SMALL
USER_CHARGES


@<TRIPOS>ATOM
      1 C1        -13.3139    2.1446   60.9187 C.3     1  ZINC000433533595   -0.1500
      2 C2        -12.0567    3.0164   60.9124 C.3     1  ZINC000433533595   -0.1200
      3 C3        -11.0798    2.5106   61.9759 C.3     1  ZINC000433533595   -0.1300
      4 C4        -10.2967    1.3182   61.4232 C.3     1  ZINC000433533595    0.1000
      5 N5         -9.7439    0.5397   62.5343 N.am    1  ZINC000433533595   -0.5500
      6 C6         -9.1474   -0.6452   62.2960 C.2     1  ZINC000433533595    0.5100
      7 O7         -8.6894   -1.2900   63.2164 O.2     1  ZINC000433533595   -0.5100
      8 C8         -9.0500   -1.1645   60.8992 C.2     1  ZINC000433533595    0.5000
      9 O9         -8.6200   -0.4520   60.0154 O.2     1  ZINC000433533595   -0.4900
     10 N10        -9.4395   -2.4241   60.6199 N.am    1  ZINC000433533595   -0.6300
     11 C11        -9.3482   -2.9105   59.3117 C.ar    1  ZINC000433533595    0.1200
     12 C12        -8.1060   -3.1736   58.7523 C.ar    1  ZINC000433533595   -0.0600
     13 C13        -8.0187   -3.6544   57.4587 C.ar    1  ZINC000433533595   -0.1100
     14 Br14       -6.3250   -4.0129   56.6979 Br      1  ZINC000433533595   -0.0400
     15 C15        -9.1675   -3.8742   56.7201 C.ar    1  ZINC000433533595   -0.0600
     16 C16       -10.4088   -3.6143   57.2712 C.ar    1  ZINC000433533595   -0.1900
     17 C17       -10.5053   -3.1379   58.5682 C.ar    1  ZINC000433533595    0.1300
     18 O18       -11.7255   -2.8820   59.1111 O.3     1  ZINC000433533595   -0.3100
     19 C19       -12.7070   -2.2958   58.2537 C.3     1  ZINC000433533595    0.0800
     20 C20       -13.8710   -3.2715   58.0692 C.3     1  ZINC000433533595   -0.1500
     21 C21       -13.2230   -0.9992   58.8811 C.3     1  ZINC000433533595   -0.1800
     22 C22        -9.8395    1.0492   63.9046 C.3     1  ZINC000433533595    0.0600
     23 C23        -8.5932    0.9446   64.7857 C.3     1  ZINC000433533595   -0.1900
     24 C24        -9.0379    2.3063   64.2484 C.3     1  ZINC000433533595   -0.1800
     25 H25       -13.7865    2.1954   61.8996 H       1  ZINC000433533595    0.0500
     26 H26       -14.0097    2.5050   60.1611 H       1  ZINC000433533595    0.0500
     27 H27       -13.0411    1.1122   60.6998 H       1  ZINC000433533595    0.0500
     28 H28       -11.5841    2.9656   59.9315 H       1  ZINC000433533595    0.0700
     29 H29       -12.3294    4.0489   61.1312 H       1  ZINC000433533595    0.0600
     30 H30       -10.3868    3.3088   62.2416 H       1  ZINC000433533595    0.0600
     31 H31       -11.6350    2.2017   62.8615 H       1  ZINC000433533595    0.0700
     32 H32       -10.9626    0.6878   60.8338 H       1  ZINC000433533595    0.1100
     33 H33        -9.4842    1.6781   60.7921 H       1  ZINC000433533595    0.0800
     34 H34        -9.7832   -2.9933   61.3261 H       1  ZINC000433533595    0.4300
     35 H35        -7.2076   -3.0024   59.3269 H       1  ZINC000433533595    0.1600
     36 H36        -9.0946   -4.2495   55.7100 H       1  ZINC000433533595    0.1400
     37 H37       -11.3036   -3.7870   56.6916 H       1  ZINC000433533595    0.1500
     38 H38       -12.2588   -2.0772   57.2845 H       1  ZINC000433533595    0.0800
     39 H39       -14.3191   -3.4900   59.0384 H       1  ZINC000433533595    0.0700
     40 H40       -14.6197   -2.8243   57.4152 H       1  ZINC000433533595    0.0800
     41 H41       -13.5034   -4.1952   57.6222 H       1  ZINC000433533595    0.0700
     42 H42       -13.6711   -1.2178   59.8504 H       1  ZINC000433533595    0.0700
     43 H43       -12.3937   -0.3041   59.0127 H       1  ZINC000433533595    0.0600
     44 H44       -13.9717   -0.5521   58.2272 H       1  ZINC000433533595    0.0800
     45 H45       -10.8090    0.9230   64.3866 H       1  ZINC000433533595    0.1400
     46 H46        -8.7424    0.7493   65.8476 H       1  ZINC000433533595    0.0900
     47 H47        -7.7020    0.4967   64.3459 H       1  ZINC000433533595    0.1400
     48 H48        -8.4395    2.7542   63.4550 H       1  ZINC000433533595    0.1000
     49 H49        -9.4800    3.0069   64.9568 H       1  ZINC000433533595    0.1000
@<TRIPOS>BOND
     1     1     2    1
     2     1    25    1
     3     1    26    1
     4     1    27    1
     5     2     3    1
     6     2    28    1
     7     2    29    1
     8     3     4    1
     9     3    30    1
    10     3    31    1
    11     4     5    1
    12     4    32    1
    13     4    33    1
    14     5     6   am
    15     5    22    1
    16     6     7    2
    17     6     8    1
    18     8     9    2
    19     8    10   am
    20    10    11    1
    21    10    34    1
    22    11    17   ar
    23    11    12   ar
    24    12    13   ar
    25    12    35    1
    26    13    14    1
    27    13    15   ar
    28    15    16   ar
    29    15    36    1
    30    16    17   ar
    31    16    37    1
    32    17    18    1
    33    18    19    1
    34    19    20    1
    35    19    21    1
    36    19    38    1
    37    20    39    1
    38    20    40    1
    39    20    41    1
    40    21    42    1
    41    21    43    1
    42    21    44    1
    43    22    24    1
    44    22    23    1
    45    22    45    1
    46    23    24    1
    47    23    46    1
    48    23    47    1
    49    24    48    1
    50    24    49    1
@<TRIPOS>SUBSTRUCTURE
     1 ZINC000433533595        1 TEMP              0 ****  ****    0 ROOT


##########                                Name:    ZINC001191196975
##########                DOCK_Rotatable_Bonds:                  14
##########                         Heavy_Atoms:                  24
##########                    Molecular_Weight:             339.438
##########                DOCK_Rotatable_Bonds:                  14
##########                       Formal_Charge:          0.00999969
##########                     HBond_Acceptors:                   8
##########                        HBond_Donors:                   4
##########                         Heavy_Atoms:                  24
##########                          Grid_Score:          -36.437305
##########                     Grid_vdw_energy:          -30.708532
##########                      Grid_es_energy:           -5.728772
##########           Internal_energy_repulsive:           11.543211

@<TRIPOS>MOLECULE
ZINC001191196975
 53 53 1 0 0
SMALL
USER_CHARGES


@<TRIPOS>ATOM
      1 C1         -9.0302    0.7197   63.7454 C.2     1  ZINC001191196975   -0.1600
      2 C2         -9.3927    1.3930   64.8090 C.2     1  ZINC001191196975   -0.1800
      3 C3        -10.8148    1.8718   64.9494 C.3     1  ZINC001191196975    0.1500
      4 N4        -11.3076    2.3273   63.6472 N.am    1  ZINC001191196975   -0.7300
      5 C5        -12.6285    2.5120   63.4536 C.2     1  ZINC001191196975    0.5100
      6 O6        -13.4090    2.3026   64.3579 O.2     1  ZINC001191196975   -0.5200
      7 C7        -13.1355    2.9789   62.1134 C.3     1  ZINC001191196975    0.0300
      8 N8        -14.4453    2.3697   61.8462 N.3     1  ZINC001191196975   -0.5100
      9 C9        -15.4853    3.3977   61.7057 C.3     1  ZINC001191196975    0.0200
     10 C10       -14.3926    1.5083   60.6574 C.3     1  ZINC001191196975    0.0700
     11 H11       -14.1675    2.0916   59.7646 H       1  ZINC001191196975    0.0600
     12 C12       -15.7156    0.7162   60.4854 C.3     1  ZINC001191196975   -0.1200
     13 C13       -15.2679   -0.5398   59.7085 C.3     1  ZINC001191196975    0.1000
     14 N14       -13.8266   -0.7084   59.9444 N.am    1  ZINC001191196975   -0.6200
     15 C15       -13.0536   -1.6808   59.4217 C.2     1  ZINC001191196975    0.5300
     16 O16       -13.5406   -2.5131   58.6861 O.2     1  ZINC001191196975   -0.5400
     17 C17       -11.5841   -1.7341   59.7513 C.3     1  ZINC001191196975   -0.1300
     18 C18       -10.9379   -2.9079   59.0127 C.3     1  ZINC001191196975   -0.1000
     19 C19        -9.4167   -2.8241   59.1538 C.3     1  ZINC001191196975   -0.1300
     20 C20        -8.7592   -3.8002   58.1762 C.3     1  ZINC001191196975    0.1400
     21 N21        -7.3048   -3.6312   58.2212 N.am    1  ZINC001191196975   -0.7500
     22 C22        -6.5572   -3.9356   57.1419 C.2     1  ZINC001191196975    0.7000
     23 N23        -5.2192   -3.7785   57.1829 N.am    1  ZINC001191196975   -0.8700
     24 O24        -7.0899   -4.3518   56.1313 O.2     1  ZINC001191196975   -0.5900
     25 C25       -13.3660    0.3637   60.8463 C.3     1  ZINC001191196975    0.1100
     26 H26        -9.7505    0.5079   62.9690 H       1  ZINC001191196975    0.1000
     27 H27        -8.0101    0.3805   63.6428 H       1  ZINC001191196975    0.1000
     28 H28        -8.6725    1.6048   65.5855 H       1  ZINC001191196975    0.1200
     29 H29       -11.4396    1.0541   65.3086 H       1  ZINC001191196975    0.0800
     30 H30       -10.8517    2.6968   65.6608 H       1  ZINC001191196975    0.0700
     31 H31       -10.6832    2.4959   62.9243 H       1  ZINC001191196975    0.4000
     32 H32       -13.2343    4.0644   62.1204 H       1  ZINC001191196975    0.0700
     33 H33       -12.4318    2.6831   61.3355 H       1  ZINC001191196975    0.1100
     34 H34       -15.1795    4.1232   60.9518 H       1  ZINC001191196975    0.0200
     35 H35       -16.4207    2.9289   61.4004 H       1  ZINC001191196975    0.0700
     36 H36       -15.6272    3.9038   62.6606 H       1  ZINC001191196975    0.0900
     37 H37       -16.1300    0.4423   61.4556 H       1  ZINC001191196975    0.0900
     38 H38       -16.4370    1.2918   59.9053 H       1  ZINC001191196975    0.0800
     39 H39       -15.8080   -1.4135   60.0734 H       1  ZINC001191196975    0.0700
     40 H40       -15.4558   -0.4035   58.6435 H       1  ZINC001191196975    0.0700
     41 H41       -11.1083   -0.8035   59.4414 H       1  ZINC001191196975    0.0900
     42 H42       -11.4572   -1.8667   60.8257 H       1  ZINC001191196975    0.0900
     43 H43       -11.2914   -3.8456   59.4413 H       1  ZINC001191196975    0.0800
     44 H44       -11.2077   -2.8661   57.9574 H       1  ZINC001191196975    0.0800
     45 H45        -9.0866   -1.8093   58.9313 H       1  ZINC001191196975    0.0700
     46 H46        -9.1315   -3.0836   60.1733 H       1  ZINC001191196975    0.0700
     47 H47        -9.0151   -4.8221   58.4558 H       1  ZINC001191196975    0.0700
     48 H48        -9.1172   -3.5993   57.1664 H       1  ZINC001191196975    0.0700
     49 H49        -6.8797   -3.3002   59.0279 H       1  ZINC001191196975    0.4000
     50 H50        -4.6813   -3.9965   56.4057 H       1  ZINC001191196975    0.4000
     51 H51        -4.7943   -3.4476   57.9896 H       1  ZINC001191196975    0.4200
     52 H52       -12.3681    0.6968   60.5610 H       1  ZINC001191196975    0.0800
     53 H53       -13.3704    0.0178   61.8799 H       1  ZINC001191196975    0.0800
@<TRIPOS>BOND
     1     1     2    2
     2     1    26    1
     3     1    27    1
     4     2     3    1
     5     2    28    1
     6     3     4    1
     7     3    29    1
     8     3    30    1
     9     4     5   am
    10     4    31    1
    11     5     6    2
    12     5     7    1
    13     7     8    1
    14     7    32    1
    15     7    33    1
    16     8     9    1
    17     8    10    1
    18     9    34    1
    19     9    35    1
    20     9    36    1
    21    10    11    1
    22    10    25    1
    23    10    12    1
    24    12    13    1
    25    12    37    1
    26    12    38    1
    27    13    14    1
    28    13    39    1
    29    13    40    1
    30    14    15   am
    31    14    25    1
    32    15    16    2
    33    15    17    1
    34    17    18    1
    35    17    41    1
    36    17    42    1
    37    18    19    1
    38    18    43    1
    39    18    44    1
    40    19    20    1
    41    19    45    1
    42    19    46    1
    43    20    21    1
    44    20    47    1
    45    20    48    1
    46    21    22   am
    47    21    49    1
    48    22    23   am
    49    22    24    2
    50    23    50    1
    51    23    51    1
    52    25    52    1
    53    25    53    1
@<TRIPOS>SUBSTRUCTURE
     1 ZINC001191196975        1 TEMP              0 ****  ****    0 ROOT


##########                                Name:    ZINC000788423111
##########                DOCK_Rotatable_Bonds:                   7
##########                         Heavy_Atoms:                  23
##########                    Molecular_Weight:             399.243
##########                DOCK_Rotatable_Bonds:                   7
##########                       Formal_Charge:         1.04308e-07
##########                     HBond_Acceptors:                   8
##########                        HBond_Donors:                   1
##########                         Heavy_Atoms:                  23
##########                          Grid_Score:          -36.379063
##########                     Grid_vdw_energy:          -34.620617
##########                      Grid_es_energy:           -1.758447
##########           Internal_energy_repulsive:            7.334114

@<TRIPOS>MOLECULE
ZINC000788423111
 35 37 1 0 0
SMALL
USER_CHARGES


@<TRIPOS>ATOM
      1 O1        -13.7485   -2.2837   60.9196 O.3     1  ZINC000788423111   -0.5400
      2 C2        -12.6481   -2.2177   60.0102 C.3     1  ZINC000788423111    0.1000
      3 H3        -11.7997   -2.7610   60.4264 H       1  ZINC000788423111    0.1300
      4 C4        -12.2576   -0.7553   59.7876 C.3     1  ZINC000788423111    0.0300
      5 O5        -10.8843   -0.5704   60.1371 O.3     1  ZINC000788423111   -0.2900
      6 C6        -10.6265    0.0710   61.3070 C.ar    1  ZINC000788423111    0.1700
      7 C7        -11.2979    1.2437   61.6185 C.ar    1  ZINC000788423111   -0.2400
      8 C8        -11.0336    1.8953   62.8104 C.ar    1  ZINC000788423111    0.1500
      9 F9        -11.6872    3.0379   63.1149 F       1  ZINC000788423111   -0.1300
     10 C10       -10.0999    1.3763   63.6912 C.ar    1  ZINC000788423111   -0.1600
     11 C11        -9.4293    0.2067   63.3810 C.ar    1  ZINC000788423111   -0.0300
     12 Br12       -8.1547   -0.4995   64.5861 Br      1  ZINC000788423111   -0.0200
     13 C13        -9.6950   -0.4497   62.1940 C.ar    1  ZINC000788423111   -0.1300
     14 C14       -13.0513   -2.8469   58.6752 C.3     1  ZINC000788423111    0.1000
     15 N15       -11.8490   -3.1479   57.8943 N.pl3   1  ZINC000788423111   -0.1300
     16 N16       -11.8244   -3.3943   56.6311 N.2     1  ZINC000788423111   -0.0500
     17 N17       -10.6061   -3.6165   56.2704 N.2     1  ZINC000788423111   -0.2600
     18 C18        -9.8394   -3.5015   57.3658 C.2     1  ZINC000788423111    0.2400
     19 C19        -8.3718   -3.6711   57.4394 C.2     1  ZINC000788423111   -0.1300
     20 C20        -7.6135   -3.4235   58.5252 C.2     1  ZINC000788423111   -0.0800
     21 C21        -6.2645   -3.6563   58.3520 C.2     1  ZINC000788423111   -0.1400
     22 C22        -5.9166   -4.0906   57.1374 C.2     1  ZINC000788423111   -0.2000
     23 S23        -7.3474   -4.2344   56.1252 S.3     1  ZINC000788423111    0.1700
     24 N24       -10.6499   -3.2020   58.3635 N.2     1  ZINC000788423111   -0.2900
     25 H25       -14.3406   -3.0328   60.7669 H       1  ZINC000788423111    0.3800
     26 H26       -12.4037   -0.4958   58.7390 H       1  ZINC000788423111    0.0900
     27 H27       -12.8806   -0.1139   60.4108 H       1  ZINC000788423111    0.0800
     28 H28       -12.0262    1.6483   60.9312 H       1  ZINC000788423111    0.1500
     29 H29        -9.8946    1.8853   64.6214 H       1  ZINC000788423111    0.1500
     30 H30        -9.1713   -1.3629   61.9527 H       1  ZINC000788423111    0.1500
     31 H31       -13.6046   -3.7677   58.8598 H       1  ZINC000788423111    0.1300
     32 H32       -13.6800   -2.1504   58.1204 H       1  ZINC000788423111    0.1300
     33 H33        -8.0287   -3.0702   59.4574 H       1  ZINC000788423111    0.1500
     34 H34        -5.5431   -3.4987   59.1401 H       1  ZINC000788423111    0.1500
     35 H35        -4.9090   -4.3228   56.8256 H       1  ZINC000788423111    0.1700
@<TRIPOS>BOND
     1     1     2    1
     2     1    25    1
     3     2     3    1
     4     2     4    1
     5     2    14    1
     6     4     5    1
     7     4    26    1
     8     4    27    1
     9     5     6    1
    10     6    13   ar
    11     6     7   ar
    12     7     8   ar
    13     7    28    1
    14     8     9    1
    15     8    10   ar
    16    10    11   ar
    17    10    29    1
    18    11    12    1
    19    11    13   ar
    20    13    30    1
    21    14    15    1
    22    14    31    1
    23    14    32    1
    24    15    24    1
    25    15    16    1
    26    16    17    2
    27    17    18    1
    28    18    19    1
    29    18    24    2
    30    19    23    1
    31    19    20    2
    32    20    21    1
    33    20    33    1
    34    21    22    2
    35    21    34    1
    36    22    23    1
    37    22    35    1
@<TRIPOS>SUBSTRUCTURE
     1 ZINC000788423111        1 TEMP              0 ****  ****    0 ROOT


##########                                Name:    ZINC000373715094
##########                DOCK_Rotatable_Bonds:                   6
##########                         Heavy_Atoms:                  27
##########                    Molecular_Weight:             362.431
##########                DOCK_Rotatable_Bonds:                   6
##########                       Formal_Charge:           0.0299999
##########                     HBond_Acceptors:                   6
##########                        HBond_Donors:                   2
##########                         Heavy_Atoms:                  27
##########                          Grid_Score:          -36.251015
##########                     Grid_vdw_energy:          -34.561714
##########                      Grid_es_energy:           -1.689302
##########           Internal_energy_repulsive:           11.973020

@<TRIPOS>MOLECULE
ZINC000373715094
 49 52 1 0 0
SMALL
USER_CHARGES


@<TRIPOS>ATOM
      1 C1        -10.4047    3.6559   61.2565 C.3     1  ZINC000373715094    0.0900
      2 N2        -11.2663    2.4742   61.3441 N.am    1  ZINC000373715094   -0.6100
      3 C3        -12.5609    2.5045   61.7045 C.2     1  ZINC000373715094    0.5200
      4 O4        -13.1743    3.5059   62.0075 O.2     1  ZINC000373715094   -0.5200
      5 C5        -13.1415    1.1078   61.6770 C.3     1  ZINC000373715094   -0.1600
      6 C6        -12.1236    0.2904   60.8483 C.3     1  ZINC000373715094   -0.1000
      7 H7        -12.0164   -0.7183   61.2472 H       1  ZINC000373715094    0.1100
      8 C8        -12.5239    0.2526   59.3720 C.3     1  ZINC000373715094    0.1300
      9 N9        -11.7363   -0.7695   58.6785 N.am    1  ZINC000373715094   -0.7300
     10 C10       -12.2028   -2.0304   58.5834 C.2     1  ZINC000373715094    0.5200
     11 O11       -13.2754   -2.3184   59.0709 O.2     1  ZINC000373715094   -0.5200
     12 C12       -11.3917   -3.0822   57.8716 C.3     1  ZINC000373715094   -0.0600
     13 C13       -10.0119   -3.1455   58.4741 C.2     1  ZINC000373715094    0.1200
     14 N14        -9.7054   -2.9065   59.7171 N.2     1  ZINC000373715094   -0.2300
     15 N15        -8.3291   -3.0623   59.9113 N.pl3   1  ZINC000373715094   -0.5100
     16 C16        -7.7464   -3.4180   58.7230 C.ar    1  ZINC000373715094    0.1300
     17 C17        -6.4385   -3.6970   58.3352 C.ar    1  ZINC000373715094   -0.1400
     18 C18        -6.1706   -4.0322   57.0380 C.ar    1  ZINC000373715094   -0.0700
     19 C19        -7.1889   -4.0986   56.0953 C.ar    1  ZINC000373715094   -0.1600
     20 C20        -8.4803   -3.8304   56.4466 C.ar    1  ZINC000373715094   -0.0400
     21 C21        -8.7812   -3.4915   57.7702 C.ar    1  ZINC000373715094   -0.1600
     22 C22       -10.8284    1.1060   61.0435 C.3     1  ZINC000373715094    0.1800
     23 H23       -10.2304    1.0882   60.1324 H       1  ZINC000373715094    0.1000
     24 C24       -10.0338    0.5542   62.1990 C.ar    1  ZINC000373715094   -0.1000
     25 C25        -9.0488   -0.3889   61.9727 C.ar    1  ZINC000373715094   -0.1000
     26 C26        -8.3200   -0.8950   63.0326 C.ar    1  ZINC000373715094   -0.1200
     27 C27        -8.5759   -0.4578   64.3188 C.ar    1  ZINC000373715094   -0.1100
     28 C28        -9.5602    0.4860   64.5450 C.ar    1  ZINC000373715094   -0.1200
     29 C29       -10.2861    0.9953   63.4846 C.ar    1  ZINC000373715094   -0.1100
     30 H30       -10.4660    4.0767   60.2529 H       1  ZINC000373715094    0.0600
     31 H31       -10.7328    4.3994   61.9829 H       1  ZINC000373715094    0.0800
     32 H32        -9.3742    3.3707   61.4687 H       1  ZINC000373715094    0.0700
     33 H33       -13.2199    0.7073   62.6876 H       1  ZINC000373715094    0.1100
     34 H34       -14.1164    1.1095   61.1896 H       1  ZINC000373715094    0.1100
     35 H35       -13.5840    0.0128   59.2891 H       1  ZINC000373715094    0.0700
     36 H36       -12.3352    1.2260   58.9194 H       1  ZINC000373715094    0.0800
     37 H37       -10.8790   -0.5388   58.2875 H       1  ZINC000373715094    0.4000
     38 H38       -11.8795   -4.0511   57.9782 H       1  ZINC000373715094    0.1200
     39 H39       -11.3153   -2.8283   56.8144 H       1  ZINC000373715094    0.1200
     40 H40        -7.8618   -2.9381   60.7523 H       1  ZINC000373715094    0.4400
     41 H41        -5.6375   -3.6482   59.0581 H       1  ZINC000373715094    0.1300
     42 H42        -5.1546   -4.2478   56.7418 H       1  ZINC000373715094    0.1300
     43 H43        -6.9564   -4.3648   55.0748 H       1  ZINC000373715094    0.1300
     44 H44        -9.2664   -3.8843   55.7078 H       1  ZINC000373715094    0.1300
     45 H45        -8.8489   -0.7305   60.9679 H       1  ZINC000373715094    0.1200
     46 H46        -7.5509   -1.6324   62.8559 H       1  ZINC000373715094    0.1200
     47 H47        -8.0068   -0.8538   65.1470 H       1  ZINC000373715094    0.1200
     48 H48        -9.7603    0.8273   65.5499 H       1  ZINC000373715094    0.1300
     49 H49       -11.0552    1.7326   63.6613 H       1  ZINC000373715094    0.1300
@<TRIPOS>BOND
     1     1     2    1
     2     1    30    1
     3     1    31    1
     4     1    32    1
     5     2    22    1
     6     2     3   am
     7     3     4    2
     8     3     5    1
     9     5     6    1
    10     5    33    1
    11     5    34    1
    12     6     7    1
    13     6     8    1
    14     6    22    1
    15     8     9    1
    16     8    35    1
    17     8    36    1
    18     9    10   am
    19     9    37    1
    20    10    11    2
    21    10    12    1
    22    12    13    1
    23    12    38    1
    24    12    39    1
    25    13    21    1
    26    13    14    2
    27    14    15    1
    28    15    16    1
    29    15    40    1
    30    16    21   ar
    31    16    17   ar
    32    17    18   ar
    33    17    41    1
    34    18    19   ar
    35    18    42    1
    36    19    20   ar
    37    19    43    1
    38    20    21   ar
    39    20    44    1
    40    22    23    1
    41    22    24    1
    42    24    29   ar
    43    24    25   ar
    44    25    26   ar
    45    25    45    1
    46    26    27   ar
    47    26    46    1
    48    27    28   ar
    49    27    47    1
    50    28    29   ar
    51    28    48    1
    52    29    49    1
@<TRIPOS>SUBSTRUCTURE
     1 ZINC000373715094        1 TEMP              0 ****  ****    0 ROOT


##########                                Name:    ZINC000652498551
##########                DOCK_Rotatable_Bonds:                   6
##########                         Heavy_Atoms:                  23
##########                    Molecular_Weight:             388.277
##########                DOCK_Rotatable_Bonds:                   6
##########                       Formal_Charge:          -0.0400001
##########                     HBond_Acceptors:                   5
##########                        HBond_Donors:                   1
##########                         Heavy_Atoms:                  23
##########                          Grid_Score:          -35.971935
##########                     Grid_vdw_energy:          -28.922113
##########                      Grid_es_energy:           -7.049822
##########           Internal_energy_repulsive:           24.227097

@<TRIPOS>MOLECULE
ZINC000652498551
 46 47 1 0 0
SMALL
USER_CHARGES


@<TRIPOS>ATOM
      1 C1        -13.5257    2.1976   59.4470 C.3     1  ZINC000652498551   -0.1300
      2 C2        -13.0477    2.4510   60.8783 C.3     1  ZINC000652498551   -0.1300
      3 C3        -13.5936    3.7937   61.3680 C.3     1  ZINC000652498551   -0.1300
      4 C4        -13.5457    1.3484   61.7767 C.2     1  ZINC000652498551    0.5000
      5 O5        -12.9195    1.0492   62.7791 O.co2   1  ZINC000652498551   -0.7000
      6 O6        -14.5748    0.7555   61.5012 O.co2   1  ZINC000652498551   -0.6700
      7 C7        -11.5183    2.4810   60.9074 C.3     1  ZINC000652498551   -0.0600
      8 H8        -11.1774    2.6726   61.9248 H       1  ZINC000652498551    0.0700
      9 C9        -11.0108    3.5896   59.9808 C.3     1  ZINC000652498551   -0.1500
     10 C10        -9.4798    3.5602   59.9567 C.3     1  ZINC000652498551   -0.1400
     11 C11        -9.0087    2.1734   59.5138 C.3     1  ZINC000652498551   -0.0100
     12 N12        -9.5042    1.1610   60.4541 N.4     1  ZINC000652498551   -0.3800
     13 H13        -9.1886    1.3856   61.3857 H       1  ZINC000652498551    0.4200
     14 C14        -8.9868   -0.1585   60.0681 C.3     1  ZINC000652498551    0.0000
     15 C15        -9.4283   -1.2006   61.0978 C.3     1  ZINC000652498551    0.0200
     16 O16        -8.8732   -2.4724   60.7566 O.3     1  ZINC000652498551   -0.3100
     17 C17        -9.1050   -2.9291   59.4978 C.ar    1  ZINC000652498551    0.1600
     18 C18       -10.3997   -2.9744   59.0033 C.ar    1  ZINC000652498551   -0.2300
     19 C19       -10.6336   -3.4399   57.7211 C.ar    1  ZINC000652498551    0.1500
     20 F20       -11.8946   -3.4845   57.2384 F       1  ZINC000652498551   -0.1200
     21 C21        -9.5754   -3.8597   56.9330 C.ar    1  ZINC000652498551   -0.1600
     22 C22        -8.2835   -3.8152   57.4259 C.ar    1  ZINC000652498551   -0.0300
     23 Br23       -6.8406   -4.3891   56.3469 Br      1  ZINC000652498551   -0.0100
     24 C24        -8.0458   -3.3454   58.7040 C.ar    1  ZINC000652498551   -0.1300
     25 C25       -10.9717    1.1338   60.4304 C.3     1  ZINC000652498551   -0.0200
     26 H26       -13.1655    2.9951   58.7971 H       1  ZINC000652498551    0.0400
     27 H27       -13.1368    1.2410   59.0981 H       1  ZINC000652498551    0.0500
     28 H28       -14.6153    2.1762   59.4263 H       1  ZINC000652498551    0.0600
     29 H29       -14.6832    3.7723   61.3473 H       1  ZINC000652498551    0.0700
     30 H30       -13.2532    3.9742   62.3877 H       1  ZINC000652498551    0.0400
     31 H31       -13.2335    4.5913   60.7181 H       1  ZINC000652498551    0.0500
     32 H32       -11.3944    3.4269   58.9737 H       1  ZINC000652498551    0.1300
     33 H33       -11.3510    4.5572   60.3498 H       1  ZINC000652498551    0.0800
     34 H34        -9.1125    4.3103   59.2564 H       1  ZINC000652498551    0.1000
     35 H35        -9.0959    3.7738   60.9543 H       1  ZINC000652498551    0.0700
     36 H36        -9.3929    1.9610   58.5162 H       1  ZINC000652498551    0.1300
     37 H37        -7.9192    2.1491   59.4954 H       1  ZINC000652498551    0.1100
     38 H38        -9.3771   -0.4292   59.0871 H       1  ZINC000652498551    0.1400
     39 H39        -7.8980   -0.1248   60.0293 H       1  ZINC000652498551    0.1500
     40 H40        -9.0784   -0.9050   62.0869 H       1  ZINC000652498551    0.1100
     41 H41       -10.5162   -1.2685   61.1025 H       1  ZINC000652498551    0.0900
     42 H42       -11.2250   -2.6470   59.6183 H       1  ZINC000652498551    0.1500
     43 H43        -9.7588   -4.2224   55.9325 H       1  ZINC000652498551    0.1500
     44 H44        -7.0370   -3.3107   59.0878 H       1  ZINC000652498551    0.1500
     45 H45       -11.3305    0.3421   61.0880 H       1  ZINC000652498551    0.1100
     46 H46       -11.3147    0.9436   59.4135 H       1  ZINC000652498551    0.1700
@<TRIPOS>BOND
     1     1     2    1
     2     1    26    1
     3     1    27    1
     4     1    28    1
     5     2     3    1
     6     2     4    1
     7     2     7    1
     8     3    29    1
     9     3    30    1
    10     3    31    1
    11     4     5   ar
    12     4     6   ar
    13     7     8    1
    14     7    25    1
    15     7     9    1
    16     9    10    1
    17     9    32    1
    18     9    33    1
    19    10    11    1
    20    10    34    1
    21    10    35    1
    22    11    12    1
    23    11    36    1
    24    11    37    1
    25    12    13    1
    26    12    14    1
    27    12    25    1
    28    14    15    1
    29    14    38    1
    30    14    39    1
    31    15    16    1
    32    15    40    1
    33    15    41    1
    34    16    17    1
    35    17    24   ar
    36    17    18   ar
    37    18    19   ar
    38    18    42    1
    39    19    20    1
    40    19    21   ar
    41    21    22   ar
    42    21    43    1
    43    22    23    1
    44    22    24   ar
    45    24    44    1
    46    25    45    1
    47    25    46    1
@<TRIPOS>SUBSTRUCTURE
     1 ZINC000652498551        1 TEMP              0 ****  ****    0 ROOT


##########                                Name:    ZINC000914736341
##########                DOCK_Rotatable_Bonds:                   7
##########                         Heavy_Atoms:                  27
##########                    Molecular_Weight:             384.905
##########                DOCK_Rotatable_Bonds:                   7
##########                       Formal_Charge:                0.02
##########                     HBond_Acceptors:                   5
##########                        HBond_Donors:                   1
##########                         Heavy_Atoms:                  27
##########                          Grid_Score:          -35.920811
##########                     Grid_vdw_energy:          -35.594273
##########                      Grid_es_energy:           -0.326540
##########           Internal_energy_repulsive:           29.553514

@<TRIPOS>MOLECULE
ZINC000914736341
 52 54 1 0 0
SMALL
USER_CHARGES


@<TRIPOS>ATOM
      1 C1        -10.2707    4.0970   65.0950 C.3     1  ZINC000914736341   -0.1400
      2 C2        -10.2230    2.8676   64.1854 C.3     1  ZINC000914736341   -0.0300
      3 C3        -11.6045    2.2115   64.1419 C.3     1  ZINC000914736341   -0.1400
      4 C4         -9.8161    3.2936   62.7733 C.3     1  ZINC000914736341    0.1300
      5 N5        -10.1208    2.2144   61.8307 N.am    1  ZINC000914736341   -0.7200
      6 C6         -9.5501    2.2049   60.6098 C.2     1  ZINC000914736341    0.5300
      7 O7         -8.7855    3.0906   60.2909 O.2     1  ZINC000914736341   -0.5300
      8 C8         -9.8622    1.0937   59.6408 C.3     1  ZINC000914736341   -0.1200
      9 H9         -9.3466    1.2490   58.6931 H       1  ZINC000914736341    0.1200
     10 C10       -11.3875    0.9594   59.4253 C.3     1  ZINC000914736341   -0.1400
     11 C11       -11.6149   -0.5312   59.3023 C.2     1  ZINC000914736341    0.5200
     12 O12       -12.6167   -1.0461   58.8527 O.2     1  ZINC000914736341   -0.5200
     13 N13       -10.5450   -1.2017   59.7633 N.am    1  ZINC000914736341   -0.6100
     14 C14       -10.4299   -2.6620   59.7820 C.3     1  ZINC000914736341    0.1600
     15 C15        -9.3791   -3.0959   58.7927 C.ar    1  ZINC000914736341   -0.1000
     16 C16        -8.0601   -3.2073   59.1898 C.ar    1  ZINC000914736341   -0.0800
     17 C17        -7.0959   -3.6053   58.2823 C.ar    1  ZINC000914736341   -0.1100
     18 C18        -7.4504   -3.8914   56.9773 C.ar    1  ZINC000914736341   -0.1000
     19 C19        -8.7695   -3.7803   56.5789 C.ar    1  ZINC000914736341   -0.1100
     20 C20        -9.7356   -3.3882   57.4880 C.ar    1  ZINC000914736341   -0.0300
     21 Cl21      -11.3923   -3.2484   56.9884 Cl      1  ZINC000914736341   -0.0600
     22 C22        -9.5060   -0.2828   60.2448 C.3     1  ZINC000914736341    0.1000
     23 C23        -9.2162    1.8837   64.7229 C.ar    1  ZINC000914736341   -0.0700
     24 C24        -9.3662    0.5331   64.4696 C.ar    1  ZINC000914736341   -0.1200
     25 C25        -8.4425   -0.3694   64.9628 C.ar    1  ZINC000914736341   -0.1200
     26 C26        -7.3686    0.0787   65.7090 C.ar    1  ZINC000914736341   -0.1200
     27 C27        -7.2181    1.4294   65.9615 C.ar    1  ZINC000914736341   -0.1200
     28 C28        -8.1394    2.3323   65.4648 C.ar    1  ZINC000914736341   -0.1100
     29 H29       -10.5606    3.7936   66.1010 H       1  ZINC000914736341    0.0600
     30 H30        -9.2866    4.5644   65.1259 H       1  ZINC000914736341    0.0600
     31 H31       -10.9989    4.8087   64.7061 H       1  ZINC000914736341    0.0600
     32 H32       -12.3327    2.9232   63.7530 H       1  ZINC000914736341    0.0600
     33 H33       -11.5706    1.3357   63.4938 H       1  ZINC000914736341    0.0600
     34 H34       -11.8944    1.9081   65.1479 H       1  ZINC000914736341    0.0600
     35 H35       -10.3686    4.1897   62.4907 H       1  ZINC000914736341    0.0700
     36 H36        -8.7468    3.5041   62.7513 H       1  ZINC000914736341    0.0700
     37 H37       -10.7333    1.5066   62.0853 H       1  ZINC000914736341    0.4000
     38 H38       -11.9304    1.3586   60.2821 H       1  ZINC000914736341    0.1100
     39 H39       -11.6897    1.4683   58.5101 H       1  ZINC000914736341    0.1100
     40 H40       -10.1457   -2.9913   60.7816 H       1  ZINC000914736341    0.1000
     41 H41       -11.3882   -3.1056   59.5120 H       1  ZINC000914736341    0.1000
     42 H42        -7.7824   -2.9831   60.2090 H       1  ZINC000914736341    0.1400
     43 H43        -6.0653   -3.6923   58.5931 H       1  ZINC000914736341    0.1300
     44 H44        -6.6968   -4.2016   56.2687 H       1  ZINC000914736341    0.1300
     45 H45        -9.0464   -4.0040   55.5593 H       1  ZINC000914736341    0.1400
     46 H46        -8.5253   -0.6064   59.8962 H       1  ZINC000914736341    0.1000
     47 H47        -9.5225   -0.2320   61.3334 H       1  ZINC000914736341    0.0900
     48 H48       -10.2052    0.1830   63.8867 H       1  ZINC000914736341    0.1300
     49 H49        -8.5602   -1.4247   64.7654 H       1  ZINC000914736341    0.1200
     50 H50        -6.6473   -0.6265   66.0948 H       1  ZINC000914736341    0.1200
     51 H51        -6.3793    1.7794   66.5448 H       1  ZINC000914736341    0.1200
     52 H52        -8.0217    3.3877   65.6620 H       1  ZINC000914736341    0.1200
@<TRIPOS>BOND
     1     1     2    1
     2     1    29    1
     3     1    30    1
     4     1    31    1
     5     2     3    1
     6     2     4    1
     7     2    23    1
     8     3    32    1
     9     3    33    1
    10     3    34    1
    11     4     5    1
    12     4    35    1
    13     4    36    1
    14     5     6   am
    15     5    37    1
    16     6     7    2
    17     6     8    1
    18     8     9    1
    19     8    22    1
    20     8    10    1
    21    10    11    1
    22    10    38    1
    23    10    39    1
    24    11    12    2
    25    11    13   am
    26    13    14    1
    27    13    22    1
    28    14    15    1
    29    14    40    1
    30    14    41    1
    31    15    20   ar
    32    15    16   ar
    33    16    17   ar
    34    16    42    1
    35    17    18   ar
    36    17    43    1
    37    18    19   ar
    38    18    44    1
    39    19    20   ar
    40    19    45    1
    41    20    21    1
    42    22    46    1
    43    22    47    1
    44    23    28   ar
    45    23    24   ar
    46    24    25   ar
    47    24    48    1
    48    25    26   ar
    49    25    49    1
    50    26    27   ar
    51    26    50    1
    52    27    28   ar
    53    27    51    1
    54    28    52    1
@<TRIPOS>SUBSTRUCTURE
     1 ZINC000914736341        1 TEMP              0 ****  ****    0 ROOT


##########                                Name:    ZINC000151820600
##########                DOCK_Rotatable_Bonds:                  10
##########                         Heavy_Atoms:                  25
##########                    Molecular_Weight:             388.915
##########                DOCK_Rotatable_Bonds:                  10
##########                       Formal_Charge:           0.0499998
##########                     HBond_Acceptors:                   8
##########                        HBond_Donors:                   2
##########                         Heavy_Atoms:                  25
##########                          Grid_Score:          -35.918518
##########                     Grid_vdw_energy:          -33.168304
##########                      Grid_es_energy:           -2.750212
##########           Internal_energy_repulsive:           37.759655

@<TRIPOS>MOLECULE
ZINC000151820600
 50 50 1 0 0
SMALL
USER_CHARGES


@<TRIPOS>ATOM
      1 C1         -5.9833   -4.2096   56.2126 C.3     1  ZINC000151820600   -0.4900
      2 S2         -7.7969   -4.2420   56.1913 S.o     1  ZINC000151820600    1.2500
      3 O3         -8.2784   -3.2329   55.3143 O.2     1  ZINC000151820600   -0.8500
      4 C4         -8.2327   -3.8166   57.9000 C.3     1  ZINC000151820600   -0.4500
      5 C5         -9.7553   -3.8015   58.0493 C.3     1  ZINC000151820600   -0.1100
      6 C6        -10.1228   -3.4516   59.4928 C.3     1  ZINC000151820600    0.1200
      7 N7         -9.5113   -2.1707   59.8555 N.am    1  ZINC000151820600   -0.7200
      8 C8        -10.2295   -1.0333   59.7714 C.2     1  ZINC000151820600    0.5200
      9 O9        -11.3816   -1.0701   59.3941 O.2     1  ZINC000151820600   -0.5200
     10 C10        -9.6011    0.2841   60.1462 C.3     1  ZINC000151820600    0.1900
     11 H11        -8.5278    0.2404   59.9613 H       1  ZINC000151820600    0.1300
     12 N12       -10.1924    1.3544   59.3391 N.am    1  ZINC000151820600   -0.6900
     13 C13        -9.4301    2.3858   58.9251 C.2     1  ZINC000151820600    0.6600
     14 O14        -8.2527    2.4288   59.2224 O.2     1  ZINC000151820600   -0.5600
     15 O15        -9.9731    3.3685   58.1821 O.3     1  ZINC000151820600   -0.3600
     16 C16        -9.1137    4.4877   57.8398 C.3     1  ZINC000151820600    0.1400
     17 C17        -9.9136    5.5196   57.0422 C.3     1  ZINC000151820600   -0.1800
     18 C18        -8.5829    5.1336   59.1212 C.3     1  ZINC000151820600   -0.1400
     19 C19        -7.9392    3.9894   56.9955 C.3     1  ZINC000151820600   -0.1800
     20 C20        -9.8484    0.5612   61.6067 C.ar    1  ZINC000151820600   -0.1000
     21 C21       -10.9137    1.3548   61.9888 C.ar    1  ZINC000151820600   -0.0900
     22 C22       -11.1415    1.6089   63.3286 C.ar    1  ZINC000151820600   -0.1000
     23 C23       -10.3039    1.0702   64.2866 C.ar    1  ZINC000151820600   -0.1000
     24 C24        -9.2372    0.2756   63.9047 C.ar    1  ZINC000151820600   -0.0300
     25 Cl25       -8.1848   -0.4021   65.1076 Cl      1  ZINC000151820600   -0.0600
     26 C26        -9.0132    0.0170   62.5644 C.ar    1  ZINC000151820600   -0.0900
     27 H27        -5.6410   -3.2145   56.4968 H       1  ZINC000151820600    0.0800
     28 H28        -5.6153   -4.9400   56.9332 H       1  ZINC000151820600    0.1100
     29 H29        -5.6038   -4.4547   55.2206 H       1  ZINC000151820600    0.1100
     30 H30        -7.8084   -4.5569   58.5783 H       1  ZINC000151820600    0.1200
     31 H31        -7.8342   -2.8313   58.1420 H       1  ZINC000151820600    0.0900
     32 H32       -10.1791   -3.0567   57.3758 H       1  ZINC000151820600    0.0800
     33 H33       -10.1545   -4.7850   57.8010 H       1  ZINC000151820600    0.0900
     34 H34       -11.2063   -3.3757   59.5836 H       1  ZINC000151820600    0.0800
     35 H35        -9.7560   -4.2313   60.1603 H       1  ZINC000151820600    0.0700
     36 H36        -8.5895   -2.1410   60.1561 H       1  ZINC000151820600    0.4000
     37 H37       -11.1326    1.3206   59.1029 H       1  ZINC000151820600    0.4200
     38 H38       -10.7504    5.8747   57.6438 H       1  ZINC000151820600    0.0600
     39 H39        -9.2685    6.3598   56.7853 H       1  ZINC000151820600    0.0700
     40 H40       -10.2918    5.0595   56.1293 H       1  ZINC000151820600    0.0900
     41 H41        -8.0130    4.3985   59.6895 H       1  ZINC000151820600    0.0700
     42 H42        -7.9378    5.9738   58.8643 H       1  ZINC000151820600    0.0800
     43 H43        -9.4197    5.4886   59.7228 H       1  ZINC000151820600    0.0700
     44 H44        -8.3174    3.5293   56.0826 H       1  ZINC000151820600    0.0900
     45 H45        -7.2941    4.8296   56.7386 H       1  ZINC000151820600    0.0700
     46 H46        -7.3693    3.2542   57.5638 H       1  ZINC000151820600    0.0600
     47 H47       -11.5682    1.7766   61.2404 H       1  ZINC000151820600    0.1300
     48 H48       -11.9740    2.2291   63.6265 H       1  ZINC000151820600    0.1400
     49 H49       -10.4815    1.2694   65.3331 H       1  ZINC000151820600    0.1400
     50 H50        -8.1809   -0.6031   62.2658 H       1  ZINC000151820600    0.1400
@<TRIPOS>BOND
     1     1     2    1
     2     1    27    1
     3     1    28    1
     4     1    29    1
     5     2     3    2
     6     2     4    1
     7     4     5    1
     8     4    30    1
     9     4    31    1
    10     5     6    1
    11     5    32    1
    12     5    33    1
    13     6     7    1
    14     6    34    1
    15     6    35    1
    16     7     8   am
    17     7    36    1
    18     8     9    2
    19     8    10    1
    20    10    11    1
    21    10    12    1
    22    10    20    1
    23    12    13   am
    24    12    37    1
    25    13    14    2
    26    13    15    1
    27    15    16    1
    28    16    17    1
    29    16    18    1
    30    16    19    1
    31    17    38    1
    32    17    39    1
    33    17    40    1
    34    18    41    1
    35    18    42    1
    36    18    43    1
    37    19    44    1
    38    19    45    1
    39    19    46    1
    40    20    26   ar
    41    20    21   ar
    42    21    22   ar
    43    21    47    1
    44    22    23   ar
    45    22    48    1
    46    23    24   ar
    47    23    49    1
    48    24    25    1
    49    24    26   ar
    50    26    50    1
@<TRIPOS>SUBSTRUCTURE
     1 ZINC000151820600        1 TEMP              0 ****  ****    0 ROOT


##########                                Name:    ZINC000981700465
##########                DOCK_Rotatable_Bonds:                   9
##########                         Heavy_Atoms:                  26
##########                    Molecular_Weight:             356.428
##########                DOCK_Rotatable_Bonds:                   9
##########                       Formal_Charge:               -0.01
##########                     HBond_Acceptors:                   8
##########                        HBond_Donors:                   3
##########                         Heavy_Atoms:                  26
##########                          Grid_Score:          -35.859364
##########                     Grid_vdw_energy:          -33.039429
##########                      Grid_es_energy:           -2.819934
##########           Internal_energy_repulsive:           32.142857

@<TRIPOS>MOLECULE
ZINC000981700465
 50 52 1 0 0
SMALL
USER_CHARGES


@<TRIPOS>ATOM
      1 C1         -9.2354    6.2766   61.6711 C.3     1  ZINC000981700465   -0.1500
      2 C2         -7.8182    6.7154   62.0454 C.3     1  ZINC000981700465   -0.1100
      3 C3         -6.9497    5.4799   62.2906 C.3     1  ZINC000981700465   -0.0500
      4 C4         -7.5372    4.6682   63.4161 C.2     1  ZINC000981700465    0.1400
      5 N5         -7.2576    4.7997   64.6834 N.2     1  ZINC000981700465   -0.2900
      6 N6         -8.0045    3.8671   65.4116 N.pl3   1  ZINC000981700465   -0.4600
      7 C7         -8.7532    3.1570   64.5526 C.2     1  ZINC000981700465    0.1000
      8 C8         -8.4924    3.6353   63.2843 C.2     1  ZINC000981700465   -0.2900
      9 C9         -9.0907    3.1520   62.0264 C.2     1  ZINC000981700465    0.5900
     10 O10        -8.7980    3.6808   60.9713 O.2     1  ZINC000981700465   -0.5300
     11 N11        -9.9622    2.1241   62.0462 N.am    1  ZINC000981700465   -0.7300
     12 C12       -10.5581    1.6449   60.7966 C.3     1  ZINC000981700465    0.1300
     13 C13       -10.9821    0.1841   60.9610 C.3     1  ZINC000981700465   -0.1100
     14 H14       -11.7139    0.0883   61.7631 H       1  ZINC000981700465    0.0900
     15 C15       -11.5586   -0.3659   59.6327 C.3     1  ZINC000981700465   -0.1200
     16 C16       -11.3548   -1.8943   59.7786 C.3     1  ZINC000981700465   -0.1300
     17 C17        -9.9906   -2.0284   60.4861 C.3     1  ZINC000981700465    0.1400
     18 H18       -10.0154   -2.8596   61.1908 H       1  ZINC000981700465    0.1000
     19 N19        -8.9311   -2.2411   59.4969 N.am    1  ZINC000981700465   -0.7100
     20 C20        -8.8860   -3.3904   58.7944 C.2     1  ZINC000981700465    0.5600
     21 O21        -9.7232   -4.2509   58.9826 O.2     1  ZINC000981700465   -0.5200
     22 C22        -7.8157   -3.6048   57.7929 C.ar    1  ZINC000981700465   -0.1400
     23 C23        -6.4652   -3.4501   58.1313 C.ar    1  ZINC000981700465   -0.0600
     24 C24        -5.5214   -3.6681   57.1408 C.ar    1  ZINC000981700465    0.0400
     25 N25        -5.9073   -4.0093   55.9267 N.ar    1  ZINC000981700465   -0.2200
     26 N26        -7.1422   -4.1525   55.6103 N.ar    1  ZINC000981700465   -0.2400
     27 C27        -8.1182   -3.9740   56.4793 C.ar    1  ZINC000981700465    0.0700
     28 C28        -9.7539   -0.7064   61.2414 C.3     1  ZINC000981700465   -0.1200
     29 H29        -9.6607    5.6891   62.4848 H       1  ZINC000981700465    0.0600
     30 H30        -9.8540    7.1568   61.4965 H       1  ZINC000981700465    0.0600
     31 H31        -9.2009    5.6712   60.7654 H       1  ZINC000981700465    0.0500
     32 H32        -7.3929    7.3028   61.2317 H       1  ZINC000981700465    0.0600
     33 H33        -7.8527    7.3208   62.9512 H       1  ZINC000981700465    0.0600
     34 H34        -6.9157    4.8742   61.3850 H       1  ZINC000981700465    0.1000
     35 H35        -5.9400    5.7925   62.5567 H       1  ZINC000981700465    0.0800
     36 H36        -7.9848    3.7529   66.3747 H       1  ZINC000981700465    0.4500
     37 H37        -9.4371    2.3610   64.8076 H       1  ZINC000981700465    0.1800
     38 H38       -10.1948    1.7015   62.8877 H       1  ZINC000981700465    0.4000
     39 H39       -11.4306    2.2515   60.5541 H       1  ZINC000981700465    0.0700
     40 H40        -9.8268    1.7226   59.9921 H       1  ZINC000981700465    0.0700
     41 H41       -12.6175   -0.1242   59.5419 H       1  ZINC000981700465    0.0700
     42 H42       -10.9989    0.0188   58.7802 H       1  ZINC000981700465    0.0700
     43 H43       -12.1460   -2.3279   60.3903 H       1  ZINC000981700465    0.0800
     44 H44       -11.3247   -2.3704   58.7985 H       1  ZINC000981700465    0.0700
     45 H45        -8.2621   -1.5548   59.3475 H       1  ZINC000981700465    0.4000
     46 H46        -6.1695   -3.1697   59.1315 H       1  ZINC000981700465    0.1700
     47 H47        -4.4701   -3.5585   57.3627 H       1  ZINC000981700465    0.1800
     48 H48        -9.1463   -4.1042   56.1752 H       1  ZINC000981700465    0.1700
     49 H49        -8.8509   -0.2213   60.8712 H       1  ZINC000981700465    0.0800
     50 H50        -9.6638   -0.8982   62.3106 H       1  ZINC000981700465    0.0800
@<TRIPOS>BOND
     1     1     2    1
     2     1    29    1
     3     1    30    1
     4     1    31    1
     5     2     3    1
     6     2    32    1
     7     2    33    1
     8     3     4    1
     9     3    34    1
    10     3    35    1
    11     4     8    1
    12     4     5    2
    13     5     6    1
    14     6     7    1
    15     6    36    1
    16     7     8    2
    17     7    37    1
    18     8     9    1
    19     9    10    2
    20     9    11   am
    21    11    12    1
    22    11    38    1
    23    12    13    1
    24    12    39    1
    25    12    40    1
    26    13    14    1
    27    13    28    1
    28    13    15    1
    29    15    16    1
    30    15    41    1
    31    15    42    1
    32    16    17    1
    33    16    43    1
    34    16    44    1
    35    17    18    1
    36    17    19    1
    37    17    28    1
    38    19    20   am
    39    19    45    1
    40    20    21    2
    41    20    22    1
    42    22    27   ar
    43    22    23   ar
    44    23    24   ar
    45    23    46    1
    46    24    25   ar
    47    24    47    1
    48    25    26   ar
    49    26    27   ar
    50    27    48    1
    51    28    49    1
    52    28    50    1
@<TRIPOS>SUBSTRUCTURE
     1 ZINC000981700465        1 TEMP              0 ****  ****    0 ROOT


##########                                Name:    ZINC000457806032
##########                DOCK_Rotatable_Bonds:                   8
##########                         Heavy_Atoms:                  24
##########                    Molecular_Weight:             387.911
##########                DOCK_Rotatable_Bonds:                   8
##########                       Formal_Charge:        -1.49012e-07
##########                     HBond_Acceptors:                   9
##########                        HBond_Donors:                   2
##########                         Heavy_Atoms:                  24
##########                          Grid_Score:          -35.842052
##########                     Grid_vdw_energy:          -34.404388
##########                      Grid_es_energy:           -1.437664
##########           Internal_energy_repulsive:            6.443769

@<TRIPOS>MOLECULE
ZINC000457806032
 42 43 1 0 0
SMALL
USER_CHARGES


@<TRIPOS>ATOM
      1 C1         -8.4403   -0.6508   64.7609 C.3     1  ZINC000457806032    0.0800
      2 N2         -8.0900    0.6581   65.3182 N.am    1  ZINC000457806032   -1.0100
      3 C3         -6.8996    0.8009   66.1600 C.3     1  ZINC000457806032    0.0900
      4 S4         -9.0397    1.9761   64.9966 S.o2    1  ZINC000457806032    2.7900
      5 O5        -10.3646    1.6145   65.3615 O.2     1  ZINC000457806032   -0.9700
      6 O6         -8.3630    3.1007   65.5411 O.2     1  ZINC000457806032   -0.9700
      7 N7         -9.0476    2.1853   63.3539 N.am    1  ZINC000457806032   -1.1300
      8 C8         -9.8109    3.2853   62.7592 C.3     1  ZINC000457806032    0.1100
      9 C9        -11.2165    2.7970   62.4037 C.3     1  ZINC000457806032    0.1100
     10 N10       -11.1199    1.6154   61.5431 N.am    1  ZINC000457806032   -0.7300
     11 C11       -12.0556    0.6484   61.6185 C.2     1  ZINC000457806032    0.5800
     12 O12       -12.9812    0.7573   62.4001 O.2     1  ZINC000457806032   -0.5300
     13 C13       -11.9575   -0.5400   60.7547 C.2     1  ZINC000457806032   -0.1500
     14 C14       -13.0167   -1.3552   60.4910 C.2     1  ZINC000457806032   -0.2200
     15 S15       -12.5483   -2.6299   59.4585 S.3     1  ZINC000457806032    0.2400
     16 C16       -10.8942   -2.0423   59.3887 C.2     1  ZINC000457806032   -0.1700
     17 C17        -9.7996   -2.6771   58.6231 C.ar    1  ZINC000457806032   -0.0100
     18 C18       -10.0703   -3.3151   57.4120 C.ar    1  ZINC000457806032   -0.0900
     19 C19        -9.0453   -3.9056   56.7023 C.ar    1  ZINC000457806032   -0.1000
     20 C20        -7.7499   -3.8665   57.1898 C.ar    1  ZINC000457806032   -0.0300
     21 Cl21       -6.4652   -4.6122   56.2915 Cl      1  ZINC000457806032   -0.0600
     22 C22        -7.4752   -3.2345   58.3908 C.ar    1  ZINC000457806032   -0.1000
     23 C23        -8.4912   -2.6356   59.1064 C.ar    1  ZINC000457806032   -0.1000
     24 C24       -10.7722   -0.9285   60.1282 C.2     1  ZINC000457806032   -0.0700
     25 H25        -9.0924   -1.1791   65.4564 H       1  ZINC000457806032    0.0600
     26 H26        -8.9568   -0.5146   63.8107 H       1  ZINC000457806032    0.0800
     27 H27        -7.5324   -1.2323   64.6008 H       1  ZINC000457806032    0.0800
     28 H28        -6.0393    1.0401   65.5352 H       1  ZINC000457806032    0.0600
     29 H29        -7.0588    1.6024   66.8815 H       1  ZINC000457806032    0.0700
     30 H30        -6.7151   -0.1335   66.6901 H       1  ZINC000457806032    0.0700
     31 H31        -8.5467    1.5797   62.7854 H       1  ZINC000457806032    0.4200
     32 H32        -9.8812    4.1062   63.4729 H       1  ZINC000457806032    0.0700
     33 H33        -9.3071    3.6309   61.8565 H       1  ZINC000457806032    0.0900
     34 H34       -11.7531    2.5385   63.3167 H       1  ZINC000457806032    0.0800
     35 H35       -11.7534    3.5866   61.8780 H       1  ZINC000457806032    0.0800
     36 H36       -10.3824    1.5291   60.9188 H       1  ZINC000457806032    0.4000
     37 H37       -14.0138   -1.2140   60.8811 H       1  ZINC000457806032    0.1700
     38 H38       -11.0805   -3.3468   57.0311 H       1  ZINC000457806032    0.1400
     39 H39        -9.2536   -4.3996   55.7648 H       1  ZINC000457806032    0.1400
     40 H40        -6.4629   -3.2072   58.7662 H       1  ZINC000457806032    0.1400
     41 H41        -8.2757   -2.1426   60.0429 H       1  ZINC000457806032    0.1300
     42 H42        -9.8428   -0.3887   60.2348 H       1  ZINC000457806032    0.1600
@<TRIPOS>BOND
     1     1     2    1
     2     1    25    1
     3     1    26    1
     4     1    27    1
     5     2     3    1
     6     2     4   am
     7     3    28    1
     8     3    29    1
     9     3    30    1
    10     4     5    2
    11     4     6    2
    12     4     7   am
    13     7     8    1
    14     7    31    1
    15     8     9    1
    16     8    32    1
    17     8    33    1
    18     9    10    1
    19     9    34    1
    20     9    35    1
    21    10    11   am
    22    10    36    1
    23    11    12    2
    24    11    13    1
    25    13    24    1
    26    13    14    2
    27    14    15    1
    28    14    37    1
    29    15    16    1
    30    16    17    1
    31    16    24    2
    32    17    23   ar
    33    17    18   ar
    34    18    19   ar
    35    18    38    1
    36    19    20   ar
    37    19    39    1
    38    20    21    1
    39    20    22   ar
    40    22    23   ar
    41    22    40    1
    42    23    41    1
    43    24    42    1
@<TRIPOS>SUBSTRUCTURE
     1 ZINC000457806032        1 TEMP              0 ****  ****    0 ROOT


##########                                Name:    ZINC000821177065
##########                DOCK_Rotatable_Bonds:                  10
##########                         Heavy_Atoms:                  25
##########                    Molecular_Weight:             341.413
##########                DOCK_Rotatable_Bonds:                  10
##########                       Formal_Charge:          0.00999917
##########                     HBond_Acceptors:                   7
##########                        HBond_Donors:                   3
##########                         Heavy_Atoms:                  25
##########                          Grid_Score:          -35.806370
##########                     Grid_vdw_energy:          -33.420475
##########                      Grid_es_energy:           -2.385895
##########           Internal_energy_repulsive:           46.457474

@<TRIPOS>MOLECULE
ZINC000821177065
 48 51 1 0 0
SMALL
USER_CHARGES


@<TRIPOS>ATOM
      1 O1        -11.2869   -0.0089   62.5624 O.2     1  ZINC000821177065   -0.5600
      2 C2        -10.1301    0.3597   62.4951 C.2     1  ZINC000821177065    0.7100
      3 N3         -9.6149    1.1428   63.4636 N.am    1  ZINC000821177065   -0.7300
      4 C4        -10.4503    1.5547   64.5943 C.3     1  ZINC000821177065    0.1200
      5 C5        -11.1071    2.9003   64.2796 C.3     1  ZINC000821177065    0.1900
      6 O6        -11.5533    2.9066   62.9221 O.3     1  ZINC000821177065   -0.5400
      7 C7        -12.3023    3.1145   65.2104 C.3     1  ZINC000821177065   -0.1500
      8 C8        -12.0771    3.9585   66.4666 C.3     1  ZINC000821177065   -0.1600
      9 C9        -12.8852    4.5265   65.2981 C.3     1  ZINC000821177065   -0.1700
     10 C10       -10.0907    4.0249   64.4877 C.3     1  ZINC000821177065   -0.1800
     11 C11        -8.6583    3.6251   64.8466 C.3     1  ZINC000821177065   -0.1900
     12 C12        -8.9740    4.1685   63.4517 C.3     1  ZINC000821177065   -0.1700
     13 N13        -9.3615   -0.0192   61.4549 N.am    1  ZINC000821177065   -0.6500
     14 C14        -9.8975   -0.8338   60.4475 C.2     1  ZINC000821177065    0.3200
     15 N15        -9.3559   -1.9311   59.9739 N.2     1  ZINC000821177065   -0.3200
     16 N16       -10.2029   -2.4440   58.9833 N.pl3   1  ZINC000821177065   -0.3600
     17 C17        -9.9731   -3.6603   58.1998 C.3     1  ZINC000821177065    0.1900
     18 C18        -8.5344   -3.7063   57.7537 C.ar    1  ZINC000821177065    0.1100
     19 C19        -8.2396   -3.8906   56.4164 C.ar    1  ZINC000821177065   -0.1500
     20 C20        -6.9125   -3.9309   56.0163 C.ar    1  ZINC000821177065   -0.0700
     21 C21        -5.9277   -3.7838   56.9808 C.ar    1  ZINC000821177065   -0.1700
     22 C22        -6.2988   -3.6029   58.3000 C.ar    1  ZINC000821177065    0.1000
     23 N23        -7.5712   -3.5647   58.6436 N.ar    1  ZINC000821177065   -0.4700
     24 C24       -11.2680   -1.6219   58.8771 C.2     1  ZINC000821177065    0.0700
     25 C25       -11.1105   -0.6213   59.7732 C.2     1  ZINC000821177065   -0.2600
     26 H26        -8.6909    1.4335   63.4119 H       1  ZINC000821177065    0.4000
     27 H27       -11.2226    0.8052   64.7676 H       1  ZINC000821177065    0.0700
     28 H28        -9.8318    1.6522   65.4865 H       1  ZINC000821177065    0.0800
     29 H29       -10.9588    2.4512   62.3105 H       1  ZINC000821177065    0.3800
     30 H30       -12.9971    2.2777   65.2838 H       1  ZINC000821177065    0.1100
     31 H31       -12.6235    3.6770   67.3667 H       1  ZINC000821177065    0.0900
     32 H32       -11.0774    4.3611   66.6298 H       1  ZINC000821177065    0.1100
     33 H33       -12.4173    5.3026   64.6926 H       1  ZINC000821177065    0.1000
     34 H34       -13.9634    4.6185   65.4295 H       1  ZINC000821177065    0.0900
     35 H35       -10.4851    4.9386   64.9325 H       1  ZINC000821177065    0.1100
     36 H36        -8.1099    4.2756   65.5279 H       1  ZINC000821177065    0.1000
     37 H37        -8.4398    2.5608   64.9347 H       1  ZINC000821177065    0.1100
     38 H38        -8.9634    3.4618   62.6220 H       1  ZINC000821177065    0.0900
     39 H39        -8.6334    5.1765   63.2152 H       1  ZINC000821177065    0.1000
     40 H40        -8.4376    0.2715   61.4032 H       1  ZINC000821177065    0.4100
     41 H41       -10.1913   -4.5344   58.8134 H       1  ZINC000821177065    0.1000
     42 H42       -10.6246   -3.6581   57.3259 H       1  ZINC000821177065    0.1200
     43 H43        -9.0327   -4.0021   55.6919 H       1  ZINC000821177065    0.1400
     44 H44        -6.6522   -4.0740   54.9778 H       1  ZINC000821177065    0.1400
     45 H45        -4.8838   -3.8103   56.7052 H       1  ZINC000821177065    0.1400
     46 H46        -5.5377   -3.4879   59.0576 H       1  ZINC000821177065    0.1600
     47 H47       -12.1005   -1.7440   58.2001 H       1  ZINC000821177065    0.1800
     48 H48       -11.7931    0.1997   59.9360 H       1  ZINC000821177065    0.1700
@<TRIPOS>BOND
     1     1     2    2
     2     2     3   am
     3     2    13   am
     4     3     4    1
     5     3    26    1
     6     4     5    1
     7     4    27    1
     8     4    28    1
     9     5     6    1
    10     5     7    1
    11     5    10    1
    12     6    29    1
    13     7     9    1
    14     7     8    1
    15     7    30    1
    16     8     9    1
    17     8    31    1
    18     8    32    1
    19     9    33    1
    20     9    34    1
    21    10    12    1
    22    10    11    1
    23    10    35    1
    24    11    12    1
    25    11    36    1
    26    11    37    1
    27    12    38    1
    28    12    39    1
    29    13    14    1
    30    13    40    1
    31    14    25    1
    32    14    15    2
    33    15    16    1
    34    16    17    1
    35    16    24    1
    36    17    18    1
    37    17    41    1
    38    17    42    1
    39    18    23   ar
    40    18    19   ar
    41    19    20   ar
    42    19    43    1
    43    20    21   ar
    44    20    44    1
    45    21    22   ar
    46    21    45    1
    47    22    23   ar
    48    22    46    1
    49    24    25    2
    50    24    47    1
    51    25    48    1
@<TRIPOS>SUBSTRUCTURE
     1 ZINC000821177065        1 TEMP              0 ****  ****    0 ROOT


##########                                Name:    ZINC001045438664
##########                DOCK_Rotatable_Bonds:                   6
##########                         Heavy_Atoms:                  26
##########                    Molecular_Weight:             352.439
##########                DOCK_Rotatable_Bonds:                   6
##########                       Formal_Charge:          -0.0099999
##########                     HBond_Acceptors:                   7
##########                        HBond_Donors:                   2
##########                         Heavy_Atoms:                  26
##########                          Grid_Score:          -35.646763
##########                     Grid_vdw_energy:          -35.697109
##########                      Grid_es_energy:            0.050347
##########           Internal_energy_repulsive:            8.815161

@<TRIPOS>MOLECULE
ZINC001045438664
 50 53 1 0 0
SMALL
USER_CHARGES


@<TRIPOS>ATOM
      1 C1         -9.1487    2.0176   64.3660 C.3     1  ZINC001045438664   -0.1100
      2 C2         -9.4213    1.9081   62.8878 C.ar    1  ZINC001045438664    0.2100
      3 C3         -9.6578    0.6765   62.3103 C.ar    1  ZINC001045438664   -0.3000
      4 C4         -9.9060    0.6250   60.9368 C.ar    1  ZINC001045438664    0.4500
      5 N5        -10.1495   -0.5865   60.3105 N.pl3   1  ZINC001045438664   -0.7100
      6 C6        -11.4522   -0.8420   59.6909 C.3     1  ZINC001045438664    0.1500
      7 H7        -11.5669   -0.2080   58.8117 H       1  ZINC001045438664    0.0900
      8 C8        -12.5642   -0.5291   60.6939 C.3     1  ZINC001045438664   -0.1300
      9 C9        -13.9247   -0.7959   60.0468 C.3     1  ZINC001045438664   -0.1200
     10 C10       -14.0120   -2.2656   59.6306 C.3     1  ZINC001045438664   -0.1200
     11 C11       -12.8999   -2.5785   58.6275 C.3     1  ZINC001045438664   -0.1300
     12 C12       -11.5394   -2.3117   59.2747 C.3     1  ZINC001045438664    0.1400
     13 H13       -11.4247   -2.9457   60.1538 H       1  ZINC001045438664    0.1000
     14 N14       -10.4746   -2.6113   58.3142 N.am    1  ZINC001045438664   -0.7200
     15 C15        -9.3312   -3.1884   58.7340 C.2     1  ZINC001045438664    0.5700
     16 O16        -9.1830   -3.4588   59.9098 O.2     1  ZINC001045438664   -0.5200
     17 C17        -8.2573   -3.4923   57.7645 C.ar    1  ZINC001045438664   -0.2500
     18 C18        -6.9233   -3.5905   58.1758 C.ar    1  ZINC001045438664    0.1900
     19 N19        -5.9955   -3.8645   57.2756 N.ar    1  ZINC001045438664   -0.5200
     20 C20        -6.3118   -4.0439   56.0081 C.ar    1  ZINC001045438664    0.3200
     21 N21        -7.5554   -3.9600   55.5777 N.ar    1  ZINC001045438664   -0.5200
     22 C22        -8.5469   -3.6957   56.4105 C.ar    1  ZINC001045438664    0.2100
     23 N23        -9.9054    1.7575   60.2402 N.ar    1  ZINC001045438664   -0.5800
     24 C24        -9.6747    2.9116   60.8329 C.ar    1  ZINC001045438664    0.4000
     25 C25        -9.6831    4.1731   60.0086 C.3     1  ZINC001045438664   -0.1100
     26 C26        -8.6168    4.3129   58.9202 C.3     1  ZINC001045438664   -0.1500
     27 C27       -10.0740    4.0511   58.5344 C.3     1  ZINC001045438664   -0.1500
     28 N28        -9.4423    2.9939   62.1273 N.ar    1  ZINC001045438664   -0.5600
     29 H29       -10.0897    2.1491   64.9002 H       1  ZINC001045438664    0.0800
     30 H30        -8.6578    1.1084   64.7132 H       1  ZINC001045438664    0.0800
     31 H31        -8.5016    2.8744   64.5536 H       1  ZINC001045438664    0.0800
     32 H32        -9.6507   -0.2246   62.9056 H       1  ZINC001045438664    0.1400
     33 H33        -9.4574   -1.2657   60.2825 H       1  ZINC001045438664    0.4100
     34 H34       -12.4496   -1.1631   61.5731 H       1  ZINC001045438664    0.0700
     35 H35       -12.5021    0.5180   60.9904 H       1  ZINC001045438664    0.0700
     36 H36       -14.7170   -0.5730   60.7613 H       1  ZINC001045438664    0.0700
     37 H37       -14.0394   -0.1619   59.1675 H       1  ZINC001045438664    0.0700
     38 H38       -13.8973   -2.8997   60.5097 H       1  ZINC001045438664    0.0700
     39 H39       -14.9812   -2.4558   59.1695 H       1  ZINC001045438664    0.0700
     40 H40       -12.9621   -3.6256   58.3310 H       1  ZINC001045438664    0.0800
     41 H41       -13.0146   -1.9445   57.7483 H       1  ZINC001045438664    0.0700
     42 H42       -10.5924   -2.3944   57.3762 H       1  ZINC001045438664    0.4000
     43 H43        -6.6563   -3.4445   59.2121 H       1  ZINC001045438664    0.1700
     44 H44        -5.5274   -4.2663   55.2999 H       1  ZINC001045438664    0.2100
     45 H45        -9.5629   -3.6287   56.0505 H       1  ZINC001045438664    0.1800
     46 H46        -9.9858    5.0775   60.5363 H       1  ZINC001045438664    0.1300
     47 H47        -8.2177    5.3096   58.7319 H       1  ZINC001045438664    0.1000
     48 H48        -7.9093    3.4926   58.8004 H       1  ZINC001045438664    0.1100
     49 H49       -10.3251    3.0584   58.1607 H       1  ZINC001045438664    0.1000
     50 H50       -10.6336    4.8755   58.0922 H       1  ZINC001045438664    0.1000
@<TRIPOS>BOND
     1     1     2    1
     2     1    29    1
     3     1    30    1
     4     1    31    1
     5     2    28   ar
     6     2     3   ar
     7     3     4   ar
     8     3    32    1
     9     4     5    1
    10     4    23   ar
    11     5     6    1
    12     5    33    1
    13     6     7    1
    14     6    12    1
    15     6     8    1
    16     8     9    1
    17     8    34    1
    18     8    35    1
    19     9    10    1
    20     9    36    1
    21     9    37    1
    22    10    11    1
    23    10    38    1
    24    10    39    1
    25    11    12    1
    26    11    40    1
    27    11    41    1
    28    12    13    1
    29    12    14    1
    30    14    15   am
    31    14    42    1
    32    15    16    2
    33    15    17    1
    34    17    22   ar
    35    17    18   ar
    36    18    19   ar
    37    18    43    1
    38    19    20   ar
    39    20    21   ar
    40    20    44    1
    41    21    22   ar
    42    22    45    1
    43    23    24   ar
    44    24    25    1
    45    24    28   ar
    46    25    27    1
    47    25    26    1
    48    25    46    1
    49    26    27    1
    50    26    47    1
    51    26    48    1
    52    27    49    1
    53    27    50    1
@<TRIPOS>SUBSTRUCTURE
     1 ZINC001045438664        1 TEMP              0 ****  ****    0 ROOT


##########                                Name:    ZINC001053792610
##########                DOCK_Rotatable_Bonds:                   5
##########                         Heavy_Atoms:                  25
##########                    Molecular_Weight:             347.374
##########                DOCK_Rotatable_Bonds:                   5
##########                       Formal_Charge:          -0.0400001
##########                     HBond_Acceptors:                   9
##########                        HBond_Donors:                   2
##########                         Heavy_Atoms:                  25
##########                          Grid_Score:          -35.607582
##########                     Grid_vdw_energy:          -34.671692
##########                      Grid_es_energy:           -0.935890
##########           Internal_energy_repulsive:            6.284337

@<TRIPOS>MOLECULE
ZINC001053792610
 46 49 1 0 0
SMALL
USER_CHARGES


@<TRIPOS>ATOM
      1 C1         -5.9213   -4.2160   56.3219 C.3     1  ZINC001053792610   -0.1000
      2 C2         -7.2007   -3.8362   57.0219 C.ar    1  ZINC001053792610    0.0800
      3 C3         -7.1575   -3.2774   58.2868 C.ar    1  ZINC001053792610    0.0600
      4 N4         -8.2794   -2.9444   58.9007 N.ar    1  ZINC001053792610   -0.4200
      5 C5         -9.4423   -3.1450   58.3065 C.ar    1  ZINC001053792610    0.0800
      6 C6        -10.7216   -2.7648   59.0063 C.3     1  ZINC001053792610    0.0700
      7 N7        -10.8506   -1.3017   59.0303 N.3     1  ZINC001053792610   -0.4500
      8 C8        -10.3267   -0.7451   60.2933 C.3     1  ZINC001053792610   -0.0100
      9 C9        -11.5329    0.1917   60.3102 C.3     1  ZINC001053792610    0.0800
     10 C10       -12.1998   -0.8967   59.4716 C.3     1  ZINC001053792610   -0.0100
     11 C11       -12.1586    0.4280   61.6938 C.3     1  ZINC001053792610   -0.1500
     12 C12       -11.8015    1.9177   61.9591 C.3     1  ZINC001053792610    0.1100
     13 H13       -12.5421    2.3901   62.6044 H       1  ZINC001053792610    0.1200
     14 N14       -10.4560    2.0451   62.5246 N.am    1  ZINC001053792610   -0.7100
     15 C15       -10.2830    2.0358   63.8611 C.2     1  ZINC001053792610    0.5000
     16 O16       -11.2411    1.9206   64.5958 O.2     1  ZINC001053792610   -0.5100
     17 C17        -8.8992    2.1687   64.4427 C.3     1  ZINC001053792610    0.0800
     18 H18        -8.2877    2.8279   63.8267 H       1  ZINC001053792610    0.1300
     19 C19        -8.9685    2.6914   65.8907 C.3     1  ZINC001053792610    0.0500
     20 O20        -8.3736    1.6214   66.6807 O.3     1  ZINC001053792610   -0.3200
     21 C21        -8.0045    0.6219   65.8719 C.2     1  ZINC001053792610    0.6500
     22 O22        -7.4805   -0.3978   66.2744 O.2     1  ZINC001053792610   -0.5100
     23 N23        -8.2648    0.8481   64.5737 N.am    1  ZINC001053792610   -0.7100
     24 C24       -11.8615    2.4978   60.5228 C.3     1  ZINC001053792610    0.0400
     25 O25       -11.3551    1.4528   59.6730 O.3     1  ZINC001053792610   -0.3300
     26 C26        -9.4855   -3.7041   57.0413 C.ar    1  ZINC001053792610    0.0600
     27 N27        -8.3635   -4.0320   56.4253 N.ar    1  ZINC001053792610   -0.4400
     28 H28        -5.5595   -3.3678   55.7407 H       1  ZINC001053792610    0.0800
     29 H29        -5.1714   -4.4956   57.0619 H       1  ZINC001053792610    0.0800
     30 H30        -6.1076   -5.0592   55.6567 H       1  ZINC001053792610    0.0800
     31 H31        -6.2069   -3.1136   58.7725 H       1  ZINC001053792610    0.1700
     32 H32       -11.5692   -3.1956   58.4732 H       1  ZINC001053792610    0.1000
     33 H33       -10.7038   -3.1448   60.0278 H       1  ZINC001053792610    0.0600
     34 H34       -10.3210   -1.4615   61.1148 H       1  ZINC001053792610    0.0800
     35 H35        -9.3750   -0.2265   60.1781 H       1  ZINC001053792610    0.0900
     36 H36       -12.8214   -0.5054   58.6662 H       1  ZINC001053792610    0.1000
     37 H37       -12.7081   -1.6546   60.0676 H       1  ZINC001053792610    0.0800
     38 H38       -13.2388    0.2863   61.6620 H       1  ZINC001053792610    0.1000
     39 H39       -11.7041   -0.2207   62.4426 H       1  ZINC001053792610    0.1000
     40 H40        -9.6896    2.1361   61.9369 H       1  ZINC001053792610    0.4000
     41 H41        -8.3899    3.6094   65.9936 H       1  ZINC001053792610    0.1200
     42 H42       -10.0041    2.8558   66.1884 H       1  ZINC001053792610    0.1100
     43 H43        -8.0686    0.2390   63.8446 H       1  ZINC001053792610    0.4400
     44 H44       -12.8903    2.7381   60.2546 H       1  ZINC001053792610    0.0800
     45 H45       -11.2329    3.3851   60.4466 H       1  ZINC001053792610    0.0900
     46 H46       -10.4360   -3.8682   56.5556 H       1  ZINC001053792610    0.1600
@<TRIPOS>BOND
     1     1     2    1
     2     1    28    1
     3     1    29    1
     4     1    30    1
     5     2    27   ar
     6     2     3   ar
     7     3     4   ar
     8     3    31    1
     9     4     5   ar
    10     5     6    1
    11     5    26   ar
    12     6     7    1
    13     6    32    1
    14     6    33    1
    15     7    10    1
    16     7     8    1
    17     8     9    1
    18     8    34    1
    19     8    35    1
    20     9    25    1
    21     9    10    1
    22     9    11    1
    23    10    36    1
    24    10    37    1
    25    11    12    1
    26    11    38    1
    27    11    39    1
    28    12    13    1
    29    12    14    1
    30    12    24    1
    31    14    15   am
    32    14    40    1
    33    15    16    2
    34    15    17    1
    35    17    18    1
    36    17    23    1
    37    17    19    1
    38    19    20    1
    39    19    41    1
    40    19    42    1
    41    20    21    1
    42    21    22    2
    43    21    23   am
    44    23    43    1
    45    24    25    1
    46    24    44    1
    47    24    45    1
    48    26    27   ar
    49    26    46    1
@<TRIPOS>SUBSTRUCTURE
     1 ZINC001053792610        1 TEMP              0 ****  ****    0 ROOT


##########                                Name:    ZINC000642096826
##########                DOCK_Rotatable_Bonds:                  12
##########                         Heavy_Atoms:                  25
##########                    Molecular_Weight:             345.485
##########                DOCK_Rotatable_Bonds:                  12
##########                       Formal_Charge:          0.00999919
##########                     HBond_Acceptors:                   5
##########                        HBond_Donors:                   1
##########                         Heavy_Atoms:                  25
##########                          Grid_Score:          -35.509895
##########                     Grid_vdw_energy:          -33.734100
##########                      Grid_es_energy:           -1.775793
##########           Internal_energy_repulsive:           25.813759

@<TRIPOS>MOLECULE
ZINC000642096826
 56 57 1 0 0
SMALL
USER_CHARGES


@<TRIPOS>ATOM
      1 C1         -9.7752    1.7826   59.3021 C.3     1  ZINC000642096826   -0.1500
      2 C2        -10.4991    3.0030   59.8746 C.3     1  ZINC000642096826   -0.1400
      3 C3        -11.9916    2.6944   60.0082 C.3     1  ZINC000642096826    0.1200
      4 N4        -12.2210    1.9086   61.2231 N.am    1  ZINC000642096826   -0.6200
      5 C5        -11.7137    2.3871   62.5115 C.3     1  ZINC000642096826    0.1100
      6 C6        -10.5311    1.5200   62.9479 C.3     1  ZINC000642096826   -0.1400
      7 C7         -9.9572    2.0624   64.2583 C.3     1  ZINC000642096826   -0.1500
      8 C8        -12.8987    0.7456   61.1556 C.2     1  ZINC000642096826    0.5200
      9 O9        -13.0899    0.0960   62.1617 O.2     1  ZINC000642096826   -0.5200
     10 C10       -13.4191    0.2525   59.8300 C.3     1  ZINC000642096826    0.0400
     11 N11       -14.2591   -0.9333   60.0442 N.3     1  ZINC000642096826   -0.5200
     12 C12       -15.6251   -0.5491   60.4244 C.3     1  ZINC000642096826    0.0100
     13 C13       -14.2666   -1.7951   58.8545 C.3     1  ZINC000642096826    0.0900
     14 C14       -12.8797   -2.3346   58.6164 C.ar    1  ZINC000642096826   -0.0500
     15 C15       -12.4534   -2.5929   57.3258 C.ar    1  ZINC000642096826   -0.1000
     16 C16       -11.1853   -3.0874   57.1009 C.ar    1  ZINC000642096826   -0.0600
     17 C17       -10.3316   -3.3265   58.1790 C.ar    1  ZINC000642096826   -0.1400
     18 C18        -8.9711   -3.8559   57.9454 C.2     1  ZINC000642096826    0.5600
     19 O19        -8.2504   -4.1176   58.8885 O.2     1  ZINC000642096826   -0.5300
     20 N20        -8.5299   -4.0483   56.6865 N.am    1  ZINC000642096826   -0.7000
     21 C21        -7.1811   -4.5713   56.4549 C.3     1  ZINC000642096826    0.0800
     22 C22        -6.3292   -3.8809   55.3879 C.3     1  ZINC000642096826   -0.1900
     23 C23        -6.0010   -3.6904   56.8701 C.3     1  ZINC000642096826   -0.1900
     24 C24       -10.7677   -3.0634   59.4784 C.ar    1  ZINC000642096826   -0.0900
     25 C25       -12.0365   -2.5641   59.6890 C.ar    1  ZINC000642096826   -0.1200
     26 H26        -9.9120    0.9325   59.9704 H       1  ZINC000642096826    0.0600
     27 H27       -10.1859    1.5436   58.3213 H       1  ZINC000642096826    0.0600
     28 H28        -8.7118    2.0025   59.2070 H       1  ZINC000642096826    0.0600
     29 H29       -10.0882    3.2420   60.8555 H       1  ZINC000642096826    0.0600
     30 H30       -10.3622    3.8532   59.2064 H       1  ZINC000642096826    0.0600
     31 H31       -12.5516    3.6276   60.0679 H       1  ZINC000642096826    0.0800
     32 H32       -12.3242    2.1260   59.1396 H       1  ZINC000642096826    0.0800
     33 H33       -11.3879    3.4225   62.4119 H       1  ZINC000642096826    0.0800
     34 H34       -12.5048    2.3255   63.2590 H       1  ZINC000642096826    0.0800
     35 H35       -10.8680    0.4940   63.0960 H       1  ZINC000642096826    0.0700
     36 H36        -9.7607    1.5417   62.1773 H       1  ZINC000642096826    0.0700
     37 H37        -9.1146    1.4447   64.5692 H       1  ZINC000642096826    0.0600
     38 H38        -9.6202    3.0884   64.1102 H       1  ZINC000642096826    0.0600
     39 H39       -10.7276    2.0406   65.0291 H       1  ZINC000642096826    0.0600
     40 H40       -14.0109    1.0365   59.3576 H       1  ZINC000642096826    0.0600
     41 H41       -12.5802   -0.0082   59.1847 H       1  ZINC000642096826    0.1000
     42 H42       -16.0671    0.0536   59.6311 H       1  ZINC000642096826    0.0200
     43 H43       -16.2256   -1.4458   60.5769 H       1  ZINC000642096826    0.0700
     44 H44       -15.5961    0.0299   61.3475 H       1  ZINC000642096826    0.0900
     45 H45       -14.9570   -2.6239   59.0106 H       1  ZINC000642096826    0.0500
     46 H46       -14.5846   -1.2153   57.9880 H       1  ZINC000642096826    0.0900
     47 H47       -13.1150   -2.4075   56.4925 H       1  ZINC000642096826    0.1300
     48 H48       -10.8539   -3.2894   56.0930 H       1  ZINC000642096826    0.1400
     49 H49        -9.1054   -3.8407   55.9338 H       1  ZINC000642096826    0.4000
     50 H50        -7.0689   -5.6494   56.5690 H       1  ZINC000642096826    0.1400
     51 H51        -5.6565   -4.5048   54.7995 H       1  ZINC000642096826    0.1000
     52 H52        -6.7723   -3.0376   54.8581 H       1  ZINC000642096826    0.1000
     53 H53        -6.2281   -2.7218   57.3154 H       1  ZINC000642096826    0.1000
     54 H54        -5.1122   -4.1891   57.2569 H       1  ZINC000642096826    0.1100
     55 H55       -10.1121   -3.2465   60.3169 H       1  ZINC000642096826    0.1200
     56 H56       -12.3750   -2.3597   60.6940 H       1  ZINC000642096826    0.1300
@<TRIPOS>BOND
     1     1     2    1
     2     1    26    1
     3     1    27    1
     4     1    28    1
     5     2     3    1
     6     2    29    1
     7     2    30    1
     8     3     4    1
     9     3    31    1
    10     3    32    1
    11     4     5    1
    12     4     8   am
    13     5     6    1
    14     5    33    1
    15     5    34    1
    16     6     7    1
    17     6    35    1
    18     6    36    1
    19     7    37    1
    20     7    38    1
    21     7    39    1
    22     8     9    2
    23     8    10    1
    24    10    11    1
    25    10    40    1
    26    10    41    1
    27    11    12    1
    28    11    13    1
    29    12    42    1
    30    12    43    1
    31    12    44    1
    32    13    14    1
    33    13    45    1
    34    13    46    1
    35    14    25   ar
    36    14    15   ar
    37    15    16   ar
    38    15    47    1
    39    16    17   ar
    40    16    48    1
    41    17    18    1
    42    17    24   ar
    43    18    19    2
    44    18    20   am
    45    20    21    1
    46    20    49    1
    47    21    23    1
    48    21    22    1
    49    21    50    1
    50    22    23    1
    51    22    51    1
    52    22    52    1
    53    23    53    1
    54    23    54    1
    55    24    25   ar
    56    24    55    1
    57    25    56    1
@<TRIPOS>SUBSTRUCTURE
     1 ZINC000642096826        1 TEMP              0 ****  ****    0 ROOT


##########                                Name:    ZINC000979274057
##########                DOCK_Rotatable_Bonds:                   6
##########                         Heavy_Atoms:                  24
##########                    Molecular_Weight:              330.39
##########                DOCK_Rotatable_Bonds:                   6
##########                       Formal_Charge:          0.00999946
##########                     HBond_Acceptors:                   8
##########                        HBond_Donors:                   1
##########                         Heavy_Atoms:                  24
##########                          Grid_Score:          -35.506187
##########                     Grid_vdw_energy:          -31.060583
##########                      Grid_es_energy:           -4.445602
##########           Internal_energy_repulsive:           11.656663

@<TRIPOS>MOLECULE
ZINC000979274057
 46 48 1 0 0
SMALL
USER_CHARGES


@<TRIPOS>ATOM
      1 C1         -9.8115   -1.9875   60.1156 C.3     1  ZINC000979274057   -0.1400
      2 C2        -11.0240   -2.4135   59.2855 C.3     1  ZINC000979274057    0.1000
      3 H3        -11.5376   -3.2338   59.7870 H       1  ZINC000979274057    0.0600
      4 N4        -10.5778   -2.8544   57.9572 N.3     1  ZINC000979274057   -0.6700
      5 C5         -9.8751   -4.1419   58.0385 C.3     1  ZINC000979274057    0.1300
      6 C6         -8.4650   -3.9775   57.5327 C.ar    1  ZINC000979274057    0.3200
      7 N7         -7.4741   -3.9274   58.4004 N.ar    1  ZINC000979274057   -0.5200
      8 C8         -6.2232   -3.7838   57.9934 C.ar    1  ZINC000979274057    0.1500
      9 C9         -5.9631   -3.6858   56.6355 C.ar    1  ZINC000979274057   -0.2300
     10 C10        -7.0311   -3.7426   55.7540 C.ar    1  ZINC000979274057    0.1500
     11 N11        -8.2550   -3.8930   56.2343 N.ar    1  ZINC000979274057   -0.5000
     12 C12       -11.9806   -1.2290   59.1349 C.3     1  ZINC000979274057    0.0800
     13 H13       -11.4373   -0.3700   58.7412 H       1  ZINC000979274057    0.0700
     14 C14       -12.5765   -0.8750   60.5023 C.3     1  ZINC000979274057    0.0800
     15 N15       -13.6270    0.1359   60.3030 N.am    1  ZINC000979274057   -0.6000
     16 C16       -13.6433    1.2719   61.0282 C.2     1  ZINC000979274057    0.6100
     17 O17       -14.5200    2.0955   60.8485 O.2     1  ZINC000979274057   -0.5400
     18 C18       -12.5994    1.5160   62.0385 C.2     1  ZINC000979274057   -0.0600
     19 C19       -11.3743    2.0724   61.8141 C.2     1  ZINC000979274057    0.0400
     20 N20       -10.7362    2.1123   63.0074 N.pl3   1  ZINC000979274057   -0.4600
     21 C21        -9.3880    2.6319   63.2493 C.3     1  ZINC000979274057    0.0700
     22 C22       -11.5706    1.5844   63.9406 C.2     1  ZINC000979274057    0.1900
     23 N23       -12.6835    1.2334   63.3638 N.2     1  ZINC000979274057   -0.4600
     24 C24       -14.6591   -0.1297   59.2883 C.3     1  ZINC000979274057    0.0500
     25 C25       -13.9617   -0.5201   57.9801 C.3     1  ZINC000979274057    0.0500
     26 O26       -13.0363   -1.5790   58.2367 O.3     1  ZINC000979274057   -0.3600
     27 H27        -9.1300   -2.8315   60.2229 H       1  ZINC000979274057    0.0600
     28 H28        -9.2979   -1.1673   59.6140 H       1  ZINC000979274057    0.0700
     29 H29       -10.1426   -1.6603   61.1012 H       1  ZINC000979274057    0.0600
     30 H30       -11.3534   -2.9058   57.3138 H       1  ZINC000979274057    0.3500
     31 H31        -9.8523   -4.4786   59.0750 H       1  ZINC000979274057    0.1000
     32 H32       -10.3963   -4.8795   57.4283 H       1  ZINC000979274057    0.0600
     33 H33        -5.4159   -3.7432   58.7096 H       1  ZINC000979274057    0.1700
     34 H34        -4.9526   -3.5676   56.2732 H       1  ZINC000979274057    0.1500
     35 H35        -6.8663   -3.6691   54.6892 H       1  ZINC000979274057    0.1700
     36 H36       -13.0070   -1.7671   60.9572 H       1  ZINC000979274057    0.0700
     37 H37       -11.7972   -0.4720   61.1491 H       1  ZINC000979274057    0.1000
     38 H38       -10.9873    2.4153   60.8659 H       1  ZINC000979274057    0.1900
     39 H39        -9.4452    3.6940   63.4875 H       1  ZINC000979274057    0.0800
     40 H40        -8.9364    2.0961   64.0842 H       1  ZINC000979274057    0.0900
     41 H41        -8.7791    2.4922   62.3561 H       1  ZINC000979274057    0.0900
     42 H42       -11.3480    1.4771   64.9919 H       1  ZINC000979274057    0.2100
     43 H43       -15.2994   -0.9468   59.6210 H       1  ZINC000979274057    0.0700
     44 H44       -15.2589    0.7667   59.1313 H       1  ZINC000979274057    0.1500
     45 H45       -14.7056   -0.8539   57.2565 H       1  ZINC000979274057    0.1100
     46 H46       -13.4264    0.3418   57.5817 H       1  ZINC000979274057    0.0500
@<TRIPOS>BOND
     1     1     2    1
     2     1    27    1
     3     1    28    1
     4     1    29    1
     5     2     3    1
     6     2     4    1
     7     2    12    1
     8     4     5    1
     9     4    30    1
    10     5     6    1
    11     5    31    1
    12     5    32    1
    13     6    11   ar
    14     6     7   ar
    15     7     8   ar
    16     8     9   ar
    17     8    33    1
    18     9    10   ar
    19     9    34    1
    20    10    11   ar
    21    10    35    1
    22    12    13    1
    23    12    26    1
    24    12    14    1
    25    14    15    1
    26    14    36    1
    27    14    37    1
    28    15    16   am
    29    15    24    1
    30    16    17    2
    31    16    18    1
    32    18    23    1
    33    18    19    2
    34    19    20    1
    35    19    38    1
    36    20    21    1
    37    20    22    1
    38    21    39    1
    39    21    40    1
    40    21    41    1
    41    22    23    2
    42    22    42    1
    43    24    25    1
    44    24    43    1
    45    24    44    1
    46    25    26    1
    47    25    45    1
    48    25    46    1
@<TRIPOS>SUBSTRUCTURE
     1 ZINC000979274057        1 TEMP              0 ****  ****    0 ROOT


##########                                Name:    ZINC000746432885
##########                DOCK_Rotatable_Bonds:                  11
##########                         Heavy_Atoms:                  31
##########                    Molecular_Weight:              419.44
##########                DOCK_Rotatable_Bonds:                  11
##########                       Formal_Charge:           0.0199995
##########                     HBond_Acceptors:                   9
##########                        HBond_Donors:                   2
##########                         Heavy_Atoms:                  31
##########                          Grid_Score:          -35.487377
##########                     Grid_vdw_energy:          -34.338089
##########                      Grid_es_energy:           -1.149289
##########           Internal_energy_repulsive:           35.312771

@<TRIPOS>MOLECULE
ZINC000746432885
 52 54 1 0 0
SMALL
USER_CHARGES


@<TRIPOS>ATOM
      1 C1         -7.3401   -0.2176   65.9589 C.3     1  ZINC000746432885    0.0300
      2 O2         -7.9935   -0.4128   64.7030 O.3     1  ZINC000746432885   -0.3200
      3 C3         -8.7467    0.6162   64.2330 C.ar    1  ZINC000746432885    0.1300
      4 C4         -9.0709    1.6771   65.0660 C.ar    1  ZINC000746432885   -0.2000
      5 C5         -9.8367    2.7217   64.5859 C.ar    1  ZINC000746432885   -0.0800
      6 C6        -10.2804    2.7104   63.2764 C.ar    1  ZINC000746432885   -0.1400
      7 C7         -9.9586    1.6542   62.4441 C.ar    1  ZINC000746432885   -0.0600
      8 C8        -10.4434    1.6451   61.0173 C.3     1  ZINC000746432885    0.2300
      9 N9         -9.4005    2.1888   60.1437 N.am    1  ZINC000746432885   -0.6900
     10 C10        -9.7393    2.8238   59.0042 C.2     1  ZINC000746432885    0.5200
     11 O11       -10.9085    2.9466   58.7026 O.2     1  ZINC000746432885   -0.5100
     12 C12        -8.6763    3.3764   58.1130 C.2     1  ZINC000746432885    0.5100
     13 O13        -8.9768    3.8806   57.0502 O.2     1  ZINC000746432885   -0.5100
     14 N14        -7.3833    3.3154   58.4883 N.am    1  ZINC000746432885   -0.6100
     15 C15        -6.3833    3.8367   57.6506 C.2     1  ZINC000746432885    0.0000
     16 C16        -5.0482    3.8365   57.9013 C.2     1  ZINC000746432885    0.0400
     17 N17        -4.4340    4.4282   56.8519 N.pl3   1  ZINC000746432885   -0.3800
     18 C18        -2.9917    4.6393   56.7057 C.3     1  ZINC000746432885    0.2500
     19 C19        -2.7517    5.8502   55.9040 C.1     1  ZINC000746432885    0.1900
     20 N20        -2.5664    6.7847   55.2852 N.1     1  ZINC000746432885   -0.3900
     21 N21        -5.4185    4.8033   55.9291 N.2     1  ZINC000746432885   -0.2800
     22 C22        -6.5846    4.4455   56.4022 C.2     1  ZINC000746432885    0.0700
     23 C23       -10.7588    0.2309   60.6029 C.ar    1  ZINC000746432885   -0.0500
     24 C24        -9.7832   -0.5491   60.0102 C.ar    1  ZINC000746432885   -0.1500
     25 C25       -10.0693   -1.8471   59.6293 C.ar    1  ZINC000746432885   -0.0700
     26 C26       -11.3314   -2.3678   59.8402 C.ar    1  ZINC000746432885   -0.2000
     27 C27       -12.3121   -1.5872   60.4347 C.ar    1  ZINC000746432885    0.1300
     28 O28       -13.5544   -2.0971   60.6432 O.3     1  ZINC000746432885   -0.3200
     29 C29       -14.1926   -2.7263   59.5302 C.3     1  ZINC000746432885    0.0300
     30 C30       -12.0209   -0.2868   60.8207 C.ar    1  ZINC000746432885   -0.1300
     31 C31        -9.1879    0.6101   62.9177 C.ar    1  ZINC000746432885   -0.1300
     32 H32        -8.0856   -0.0242   66.7302 H       1  ZINC000746432885    0.0600
     33 H33        -6.7741   -1.1128   66.2170 H       1  ZINC000746432885    0.1000
     34 H34        -6.6621    0.6329   65.8874 H       1  ZINC000746432885    0.0600
     35 H35        -8.7252    1.6861   66.0891 H       1  ZINC000746432885    0.1300
     36 H36       -10.0893    3.5480   65.2339 H       1  ZINC000746432885    0.1300
     37 H37       -10.8795    3.5276   62.9030 H       1  ZINC000746432885    0.1200
     38 H38       -11.3418    2.2568   60.9348 H       1  ZINC000746432885    0.1200
     39 H39        -8.4661    2.0917   60.3853 H       1  ZINC000746432885    0.4200
     40 H40        -7.1432    2.9114   59.3368 H       1  ZINC000746432885    0.4200
     41 H41        -4.5647    3.4362   58.7802 H       1  ZINC000746432885    0.1900
     42 H42        -2.5406    4.7604   57.6906 H       1  ZINC000746432885    0.1300
     43 H43        -2.5472    3.7786   56.2059 H       1  ZINC000746432885    0.1500
     44 H44        -7.5380    4.5982   55.9185 H       1  ZINC000746432885    0.2100
     45 H45        -8.7960   -0.1438   59.8441 H       1  ZINC000746432885    0.1200
     46 H46        -9.3056   -2.4544   59.1662 H       1  ZINC000746432885    0.1300
     47 H47       -11.5545   -3.3816   59.5422 H       1  ZINC000746432885    0.1300
     48 H48       -15.1754   -3.0886   59.8321 H       1  ZINC000746432885    0.1000
     49 H49       -14.3040   -2.0057   58.7202 H       1  ZINC000746432885    0.0600
     50 H50       -13.5852   -3.5649   59.1896 H       1  ZINC000746432885    0.0600
     51 H51       -12.7826    0.3229   61.2838 H       1  ZINC000746432885    0.1400
     52 H52        -8.9369   -0.2148   62.2674 H       1  ZINC000746432885    0.1300
@<TRIPOS>BOND
     1     1     2    1
     2     1    32    1
     3     1    33    1
     4     1    34    1
     5     2     3    1
     6     3    31   ar
     7     3     4   ar
     8     4     5   ar
     9     4    35    1
    10     5     6   ar
    11     5    36    1
    12     6     7   ar
    13     6    37    1
    14     7     8    1
    15     7    31   ar
    16     8     9    1
    17     8    23    1
    18     8    38    1
    19     9    10   am
    20     9    39    1
    21    10    11    2
    22    10    12    1
    23    12    13    2
    24    12    14   am
    25    14    15    1
    26    14    40    1
    27    15    22    1
    28    15    16    2
    29    16    17    1
    30    16    41    1
    31    17    18    1
    32    17    21    1
    33    18    19    1
    34    18    42    1
    35    18    43    1
    36    19    20    3
    37    21    22    2
    38    22    44    1
    39    23    30   ar
    40    23    24   ar
    41    24    25   ar
    42    24    45    1
    43    25    26   ar
    44    25    46    1
    45    26    27   ar
    46    26    47    1
    47    27    28    1
    48    27    30   ar
    49    28    29    1
    50    29    48    1
    51    29    49    1
    52    29    50    1
    53    30    51    1
    54    31    52    1
@<TRIPOS>SUBSTRUCTURE
     1 ZINC000746432885        1 TEMP              0 ****  ****    0 ROOT


##########                                Name:    ZINC000432253027
##########                DOCK_Rotatable_Bonds:                   8
##########                         Heavy_Atoms:                  26
##########                    Molecular_Weight:             401.436
##########                DOCK_Rotatable_Bonds:                   8
##########                       Formal_Charge:         1.19209e-07
##########                     HBond_Acceptors:                  11
##########                        HBond_Donors:                   0
##########                         Heavy_Atoms:                  26
##########                          Grid_Score:          -35.405926
##########                     Grid_vdw_energy:          -35.016438
##########                      Grid_es_energy:           -0.389486
##########           Internal_energy_repulsive:           15.095649

@<TRIPOS>MOLECULE
ZINC000432253027
 40 42 1 0 0
SMALL
USER_CHARGES


@<TRIPOS>ATOM
      1 C1        -12.5793   -3.1380   56.5289 C.3     1  ZINC000432253027    0.0300
      2 O2        -12.1164   -2.4374   57.6852 O.3     1  ZINC000432253027   -0.3100
      3 C3        -10.8298   -2.6532   58.0630 C.ar    1  ZINC000432253027    0.1500
      4 C4        -10.0099   -3.4710   57.3030 C.ar    1  ZINC000432253027   -0.2100
      5 C5         -8.7006   -3.6904   57.6886 C.ar    1  ZINC000432253027   -0.0600
      6 C6         -8.2001   -3.0960   58.8337 C.ar    1  ZINC000432253027   -0.1600
      7 C7         -9.0041   -2.2787   59.6014 C.ar    1  ZINC000432253027   -0.0300
      8 C8        -10.3251   -2.0452   59.2193 C.ar    1  ZINC000432253027   -0.0600
      9 C9        -11.1915   -1.1710   60.0372 C.2     1  ZINC000432253027    0.1200
     10 N10       -10.8273   -0.0489   60.5894 N.2     1  ZINC000432253027   -0.4600
     11 C11       -11.7364    0.5973   61.2836 C.2     1  ZINC000432253027    0.0800
     12 C12       -11.4389    1.9057   61.9696 C.3     1  ZINC000432253027   -0.0200
     13 S13       -10.7809    1.5827   63.6288 S.3     1  ZINC000432253027   -0.1700
     14 C14        -9.0510    1.1443   63.3036 C.3     1  ZINC000432253027   -0.0300
     15 C15        -8.4477    0.5291   64.5400 C.2     1  ZINC000432253027    0.2100
     16 N16        -8.2616   -0.7483   64.7676 N.2     1  ZINC000432253027   -0.2700
     17 N17        -7.7228   -0.8708   65.9314 N.2     1  ZINC000432253027   -0.0500
     18 N18        -7.5603    0.2952   66.4523 N.2     1  ZINC000432253027   -0.0700
     19 N19        -7.9902    1.1850   65.6226 N.pl3   1  ZINC000432253027   -0.3100
     20 C20        -7.9892    2.6359   65.8250 C.3     1  ZINC000432253027    0.0700
     21 C21        -6.8591    3.0164   66.7836 C.3     1  ZINC000432253027    0.4300
     22 F22        -5.6327    2.6206   66.2392 F       1  ZINC000432253027   -0.1500
     23 F23        -6.8582    4.4020   66.9768 F       1  ZINC000432253027   -0.1700
     24 F24        -7.0532    2.3744   68.0115 F       1  ZINC000432253027   -0.1700
     25 C25       -12.9417    0.0225   61.3433 C.2     1  ZINC000432253027   -0.2500
     26 S26       -12.8850   -1.4750   60.4156 S.3     1  ZINC000432253027    0.1600
     27 H27       -13.6200   -2.8762   56.3378 H       1  ZINC000432253027    0.1000
     28 H28       -11.9708   -2.8605   55.6681 H       1  ZINC000432253027    0.0600
     29 H29       -12.5001   -4.2118   56.6988 H       1  ZINC000432253027    0.0600
     30 H30       -10.3940   -3.9381   56.4082 H       1  ZINC000432253027    0.1400
     31 H31        -8.0651   -4.3294   57.0935 H       1  ZINC000432253027    0.1300
     32 H32        -7.1760   -3.2727   59.1278 H       1  ZINC000432253027    0.1300
     33 H33        -8.6099   -1.8169   60.4946 H       1  ZINC000432253027    0.1400
     34 H34       -10.7028    2.4614   61.3886 H       1  ZINC000432253027    0.1000
     35 H35       -12.3552    2.4906   62.0496 H       1  ZINC000432253027    0.1100
     36 H36        -9.0056    0.4288   62.4827 H       1  ZINC000432253027    0.1100
     37 H37        -8.4932    2.0413   63.0350 H       1  ZINC000432253027    0.1300
     38 H38        -7.8380    3.1360   64.8684 H       1  ZINC000432253027    0.1500
     39 H39        -8.9448    2.9442   66.2492 H       1  ZINC000432253027    0.1600
     40 H40       -13.8029    0.4109   61.8666 H       1  ZINC000432253027    0.1800
@<TRIPOS>BOND
     1     1     2    1
     2     1    27    1
     3     1    28    1
     4     1    29    1
     5     2     3    1
     6     3     8   ar
     7     3     4   ar
     8     4     5   ar
     9     4    30    1
    10     5     6   ar
    11     5    31    1
    12     6     7   ar
    13     6    32    1
    14     7     8   ar
    15     7    33    1
    16     8     9    1
    17     9    26    1
    18     9    10    2
    19    10    11    1
    20    11    12    1
    21    11    25    2
    22    12    13    1
    23    12    34    1
    24    12    35    1
    25    13    14    1
    26    14    15    1
    27    14    36    1
    28    14    37    1
    29    15    19    1
    30    15    16    2
    31    16    17    1
    32    17    18    2
    33    18    19    1
    34    19    20    1
    35    20    21    1
    36    20    38    1
    37    20    39    1
    38    21    22    1
    39    21    23    1
    40    21    24    1
    41    25    26    1
    42    25    40    1
@<TRIPOS>SUBSTRUCTURE
     1 ZINC000432253027        1 TEMP              0 ****  ****    0 ROOT


##########                                Name:    ZINC000986832075
##########                DOCK_Rotatable_Bonds:                   7
##########                         Heavy_Atoms:                  25
##########                    Molecular_Weight:             347.433
##########                DOCK_Rotatable_Bonds:                   7
##########                       Formal_Charge:          -0.0200006
##########                     HBond_Acceptors:                   6
##########                        HBond_Donors:                   1
##########                         Heavy_Atoms:                  25
##########                          Grid_Score:          -35.398693
##########                     Grid_vdw_energy:          -32.276188
##########                      Grid_es_energy:           -3.122504
##########           Internal_energy_repulsive:           34.935661

@<TRIPOS>MOLECULE
ZINC000986832075
 51 53 1 0 0
SMALL
USER_CHARGES


@<TRIPOS>ATOM
      1 C1        -13.1945   -3.6289   57.4971 C.3     1  ZINC000986832075   -0.1700
      2 C2        -12.1241   -3.0863   58.4461 C.3     1  ZINC000986832075    0.1500
      3 H3        -12.1394   -3.6563   59.3750 H       1  ZINC000986832075    0.0900
      4 N4        -10.8063   -3.2109   57.8183 N.am    1  ZINC000986832075   -0.7200
      5 C5         -9.7442   -3.5981   58.5520 C.2     1  ZINC000986832075    0.5600
      6 O6         -9.8798   -3.8452   59.7342 O.2     1  ZINC000986832075   -0.5100
      7 C7         -8.4126   -3.7222   57.9181 C.ar    1  ZINC000986832075   -0.1300
      8 C8         -7.2430   -3.6471   58.6813 C.ar    1  ZINC000986832075   -0.1100
      9 C9         -6.0213   -3.7680   58.0490 C.ar    1  ZINC000986832075    0.0900
     10 N10        -5.9470   -3.9514   56.7456 N.ar    1  ZINC000986832075   -0.4400
     11 C11        -7.0215   -4.0283   55.9872 C.ar    1  ZINC000986832075    0.0700
     12 C12        -8.2882   -3.9240   56.5374 C.ar    1  ZINC000986832075    0.1100
     13 F13        -9.3857   -4.0038   55.7537 F       1  ZINC000986832075   -0.1000
     14 C14       -12.4084   -1.6133   58.7470 C.3     1  ZINC000986832075   -0.1000
     15 C15       -13.5597   -1.5109   59.7501 C.3     1  ZINC000986832075   -0.1300
     16 C16       -13.8645   -0.0345   60.0227 C.3     1  ZINC000986832075    0.1100
     17 N17       -12.6278    0.6319   60.4532 N.am    1  ZINC000986832075   -0.6100
     18 C18       -12.5901    1.3322   61.6041 C.2     1  ZINC000986832075    0.5200
     19 O19       -13.5830    1.4169   62.2953 O.2     1  ZINC000986832075   -0.5300
     20 C20       -11.3140    2.0102   62.0320 C.3     1  ZINC000986832075   -0.0800
     21 H21       -10.4800    1.3170   61.9228 H       1  ZINC000986832075    0.0900
     22 C22       -11.4312    2.4407   63.4955 C.3     1  ZINC000986832075   -0.1400
     23 C23       -11.0720    3.2412   61.1561 C.3     1  ZINC000986832075   -0.1400
     24 C24        -9.9006    4.1529   61.5271 C.3     1  ZINC000986832075   -0.1800
     25 C25        -9.8100    3.2556   60.2912 C.3     1  ZINC000986832075   -0.1700
     26 C26       -11.4331    0.5200   59.6053 C.3     1  ZINC000986832075    0.1000
     27 C27       -11.1556   -0.9625   59.3376 C.3     1  ZINC000986832075   -0.1300
     28 H28       -12.9920   -4.6782   57.2828 H       1  ZINC000986832075    0.0600
     29 H29       -14.1750   -3.5361   57.9643 H       1  ZINC000986832075    0.0700
     30 H30       -13.1793   -3.0587   56.5682 H       1  ZINC000986832075    0.0600
     31 H31       -10.6983   -3.0148   56.8744 H       1  ZINC000986832075    0.4000
     32 H32        -7.2946   -3.4965   59.7495 H       1  ZINC000986832075    0.1500
     33 H33        -5.1133   -3.7113   58.6310 H       1  ZINC000986832075    0.1700
     34 H34        -6.9133   -4.1789   54.9231 H       1  ZINC000986832075    0.1800
     35 H35       -12.6837   -1.1009   57.8252 H       1  ZINC000986832075    0.0800
     36 H36       -14.4451   -1.9953   59.3385 H       1  ZINC000986832075    0.0700
     37 H37       -13.2757   -2.0016   60.6811 H       1  ZINC000986832075    0.0800
     38 H38       -14.2352    0.4361   59.1122 H       1  ZINC000986832075    0.0700
     39 H39       -14.6150    0.0445   60.8091 H       1  ZINC000986832075    0.0900
     40 H40       -12.3172    3.0631   63.6213 H       1  ZINC000986832075    0.0600
     41 H41       -11.5149    1.5573   64.1285 H       1  ZINC000986832075    0.0600
     42 H42       -10.5450    3.0085   63.7793 H       1  ZINC000986832075    0.0700
     43 H43       -11.9669    3.7116   60.7487 H       1  ZINC000986832075    0.1100
     44 H44       -10.0248    5.2234   61.3640 H       1  ZINC000986832075    0.1000
     45 H45        -9.3024    3.8758   62.3952 H       1  ZINC000986832075    0.0900
     46 H46        -9.1522    2.3882   60.3461 H       1  ZINC000986832075    0.0900
     47 H47        -9.8746    3.7359   59.3148 H       1  ZINC000986832075    0.1000
     48 H48       -11.6056    1.0359   58.6608 H       1  ZINC000986832075    0.0700
     49 H49       -10.5793    0.9651   60.1166 H       1  ZINC000986832075    0.0900
     50 H50       -10.8943   -1.4584   60.2724 H       1  ZINC000986832075    0.0800
     51 H51       -10.3299   -1.0565   58.6322 H       1  ZINC000986832075    0.0800
@<TRIPOS>BOND
     1     1     2    1
     2     1    28    1
     3     1    29    1
     4     1    30    1
     5     2     3    1
     6     2     4    1
     7     2    14    1
     8     4     5   am
     9     4    31    1
    10     5     6    2
    11     5     7    1
    12     7    12   ar
    13     7     8   ar
    14     8     9   ar
    15     8    32    1
    16     9    10   ar
    17     9    33    1
    18    10    11   ar
    19    11    12   ar
    20    11    34    1
    21    12    13    1
    22    14    27    1
    23    14    15    1
    24    14    35    1
    25    15    16    1
    26    15    36    1
    27    15    37    1
    28    16    17    1
    29    16    38    1
    30    16    39    1
    31    17    18   am
    32    17    26    1
    33    18    19    2
    34    18    20    1
    35    20    21    1
    36    20    22    1
    37    20    23    1
    38    22    40    1
    39    22    41    1
    40    22    42    1
    41    23    25    1
    42    23    24    1
    43    23    43    1
    44    24    25    1
    45    24    44    1
    46    24    45    1
    47    25    46    1
    48    25    47    1
    49    26    27    1
    50    26    48    1
    51    26    49    1
    52    27    50    1
    53    27    51    1
@<TRIPOS>SUBSTRUCTURE
     1 ZINC000986832075        1 TEMP              0 ****  ****    0 ROOT


##########                                Name:    ZINC000429196987
##########                DOCK_Rotatable_Bonds:                   7
##########                         Heavy_Atoms:                  28
##########                    Molecular_Weight:             403.505
##########                DOCK_Rotatable_Bonds:                   7
##########                       Formal_Charge:          -0.0399997
##########                     HBond_Acceptors:                   9
##########                        HBond_Donors:                   1
##########                         Heavy_Atoms:                  28
##########                          Grid_Score:          -35.274662
##########                     Grid_vdw_energy:          -33.893661
##########                      Grid_es_energy:           -1.381001
##########           Internal_energy_repulsive:           13.624631

@<TRIPOS>MOLECULE
ZINC000429196987
 53 55 1 0 0
SMALL
USER_CHARGES


@<TRIPOS>ATOM
      1 C1        -13.4868   -1.5025   56.6524 C.3     1  ZINC000429196987    0.0800
      2 N2        -12.7823   -1.7519   57.9125 N.am    1  ZINC000429196987   -0.6300
      3 C3        -12.4439   -3.1225   58.3036 C.3     1  ZINC000429196987    0.1600
      4 C4        -11.0533   -3.4525   57.8257 C.ar    1  ZINC000429196987   -0.0600
      5 C5        -10.7791   -3.4923   56.4714 C.ar    1  ZINC000429196987   -0.1300
      6 C6         -9.5034   -3.7950   56.0331 C.ar    1  ZINC000429196987   -0.0300
      7 C7         -8.5020   -4.0574   56.9491 C.ar    1  ZINC000429196987   -0.6600
      8 S8         -6.8762   -4.4437   56.3904 S.o2    1  ZINC000429196987    2.5000
      9 C9         -5.7814   -3.6558   57.6033 C.3     1  ZINC000429196987   -0.6500
     10 O10        -6.7974   -5.8588   56.4929 O.2     1  ZINC000429196987   -0.9400
     11 O11        -6.7748   -3.7937   55.1308 O.2     1  ZINC000429196987   -0.9400
     12 C12        -8.7759   -4.0162   58.3034 C.ar    1  ZINC000429196987   -0.0300
     13 C13       -10.0505   -3.7098   58.7418 C.ar    1  ZINC000429196987   -0.1100
     14 C14       -12.4454   -0.7204   58.7118 C.2     1  ZINC000429196987    0.7100
     15 O15       -12.7276    0.4170   58.3879 O.2     1  ZINC000429196987   -0.5800
     16 N16       -11.7958   -0.9497   59.8702 N.am    1  ZINC000429196987   -0.7400
     17 C17       -11.4280    0.1717   60.7382 C.3     1  ZINC000429196987    0.1600
     18 C18       -12.4187    0.2642   61.9021 C.3     1  ZINC000429196987   -0.1300
     19 C19       -11.9945    1.3985   62.8378 C.3     1  ZINC000429196987    0.0700
     20 N20       -10.6408    1.1373   63.3433 N.3     1  ZINC000429196987   -0.4700
     21 C21       -10.2747    2.0801   64.2977 C.ar    1  ZINC000429196987    0.2500
     22 C22        -9.3312    1.7596   65.2730 C.ar    1  ZINC000429196987   -0.1300
     23 C23        -9.0009    2.7344   66.2012 C.ar    1  ZINC000429196987   -0.1000
     24 C24        -9.6287    3.9682   66.1031 C.ar    1  ZINC000429196987    0.0200
     25 N25       -10.5102    4.1853   65.1474 N.ar    1  ZINC000429196987   -0.2200
     26 N26       -10.8169    3.2891   64.2812 N.ar    1  ZINC000429196987   -0.2800
     27 C27        -9.6644    1.0913   62.2475 C.3     1  ZINC000429196987    0.0600
     28 C28       -10.0190   -0.0522   61.2941 C.3     1  ZINC000429196987   -0.1200
     29 H29       -14.5625   -1.5239   56.8272 H       1  ZINC000429196987    0.0600
     30 H30       -13.2014   -0.5249   56.2639 H       1  ZINC000429196987    0.0700
     31 H31       -13.2208   -2.2729   55.9287 H       1  ZINC000429196987    0.0800
     32 H32       -12.4858   -3.2115   59.3891 H       1  ZINC000429196987    0.1000
     33 H33       -13.1561   -3.8148   57.8546 H       1  ZINC000429196987    0.0900
     34 H34       -11.5615   -3.2872   55.7558 H       1  ZINC000429196987    0.1300
     35 H35        -9.2893   -3.8267   54.9750 H       1  ZINC000429196987    0.1400
     36 H36        -5.9800   -4.0670   58.5931 H       1  ZINC000429196987    0.1300
     37 H37        -4.7428   -3.8456   57.3327 H       1  ZINC000429196987    0.1300
     38 H38        -5.9637   -2.5812   57.6131 H       1  ZINC000429196987    0.1300
     39 H39        -7.9933   -4.2209   59.0191 H       1  ZINC000429196987    0.1400
     40 H40       -10.2645   -3.6777   59.7999 H       1  ZINC000429196987    0.1400
     41 H41       -11.5717   -1.8573   60.1292 H       1  ZINC000429196987    0.4000
     42 H42       -11.4505    1.0986   60.1650 H       1  ZINC000429196987    0.0900
     43 H43       -13.4174    0.4662   61.5147 H       1  ZINC000429196987    0.0800
     44 H44       -12.4242   -0.6775   62.4510 H       1  ZINC000429196987    0.0700
     45 H45       -12.0026    2.3418   62.2918 H       1  ZINC000429196987    0.0600
     46 H46       -12.6898    1.4577   63.6752 H       1  ZINC000429196987    0.0900
     47 H47        -8.8725    0.7824   65.3045 H       1  ZINC000429196987    0.1500
     48 H48        -8.2765    2.5396   66.9782 H       1  ZINC000429196987    0.1500
     49 H49        -9.3952    4.7506   66.8101 H       1  ZINC000429196987    0.1700
     50 H50        -9.6834    2.0361   61.7043 H       1  ZINC000429196987    0.0500
     51 H51        -8.6673    0.9274   62.6561 H       1  ZINC000429196987    0.0900
     52 H52        -9.9868   -0.9989   61.8334 H       1  ZINC000429196987    0.0800
     53 H53        -9.3032   -0.0763   60.4725 H       1  ZINC000429196987    0.0800
@<TRIPOS>BOND
     1     1     2    1
     2     1    29    1
     3     1    30    1
     4     1    31    1
     5     2     3    1
     6     2    14   am
     7     3     4    1
     8     3    32    1
     9     3    33    1
    10     4    13   ar
    11     4     5   ar
    12     5     6   ar
    13     5    34    1
    14     6     7   ar
    15     6    35    1
    16     7     8    1
    17     7    12   ar
    18     8     9    1
    19     8    10    2
    20     8    11    2
    21     9    36    1
    22     9    37    1
    23     9    38    1
    24    12    13   ar
    25    12    39    1
    26    13    40    1
    27    14    15    2
    28    14    16   am
    29    16    17    1
    30    16    41    1
    31    17    28    1
    32    17    18    1
    33    17    42    1
    34    18    19    1
    35    18    43    1
    36    18    44    1
    37    19    20    1
    38    19    45    1
    39    19    46    1
    40    20    21    1
    41    20    27    1
    42    21    26   ar
    43    21    22   ar
    44    22    23   ar
    45    22    47    1
    46    23    24   ar
    47    23    48    1
    48    24    25   ar
    49    24    49    1
    50    25    26   ar
    51    27    28    1
    52    27    50    1
    53    27    51    1
    54    28    52    1
    55    28    53    1
@<TRIPOS>SUBSTRUCTURE
     1 ZINC000429196987        1 TEMP              0 ****  ****    0 ROOT


##########                                Name:    ZINC000981048968
##########                DOCK_Rotatable_Bonds:                   7
##########                         Heavy_Atoms:                  25
##########                    Molecular_Weight:             344.414
##########                DOCK_Rotatable_Bonds:                   7
##########                       Formal_Charge:                0.02
##########                     HBond_Acceptors:                   7
##########                        HBond_Donors:                   2
##########                         Heavy_Atoms:                  25
##########                          Grid_Score:          -35.186108
##########                     Grid_vdw_energy:          -32.924438
##########                      Grid_es_energy:           -2.261670
##########           Internal_energy_repulsive:            5.029574

@<TRIPOS>MOLECULE
ZINC000981048968
 49 52 1 0 0
SMALL
USER_CHARGES


@<TRIPOS>ATOM
      1 C1         -6.3699   -4.5384   56.0382 C.3     1  ZINC000981048968   -0.0800
      2 C2         -7.2371   -4.0801   57.1824 C.2     1  ZINC000981048968   -0.0100
      3 C3         -8.5759   -3.9939   57.1577 C.2     1  ZINC000981048968   -0.1600
      4 C4         -8.9740   -3.5059   58.4862 C.2     1  ZINC000981048968   -0.2300
      5 C5        -10.3427   -3.2438   58.9657 C.2     1  ZINC000981048968    0.5900
      6 O6        -10.5550   -3.1105   60.1557 O.2     1  ZINC000981048968   -0.5300
      7 N7        -11.3591   -3.1519   58.0854 N.am    1  ZINC000981048968   -0.7300
      8 C8        -12.7200   -2.8932   58.5623 C.3     1  ZINC000981048968    0.1500
      9 H9        -12.8769   -3.4080   59.5101 H       1  ZINC000981048968    0.0900
     10 C10       -13.7277   -3.4051   57.5309 C.3     1  ZINC000981048968   -0.1300
     11 C11       -15.1489   -3.1348   58.0288 C.3     1  ZINC000981048968   -0.1200
     12 C12       -15.3422   -1.6301   58.2276 C.3     1  ZINC000981048968   -0.1100
     13 C13       -14.3346   -1.1183   59.2589 C.3     1  ZINC000981048968    0.1000
     14 H14       -14.4915   -1.6331   60.2068 H       1  ZINC000981048968    0.0500
     15 N15       -14.5202    0.3264   59.4497 N.3     1  ZINC000981048968   -0.6800
     16 C16       -15.0988    0.6131   60.7691 C.3     1  ZINC000981048968    0.1500
     17 C17       -14.0960    1.3665   61.6045 C.2     1  ZINC000981048968    0.1800
     18 N18       -14.1332    2.6325   61.8947 N.2     1  ZINC000981048968   -0.3800
     19 O19       -13.1821    2.9331   62.5850 O.3     1  ZINC000981048968    0.0800
     20 C20       -12.4251    1.8546   62.8076 C.2     1  ZINC000981048968    0.2100
     21 C21       -11.1548    1.8010   63.6168 C.3     1  ZINC000981048968   -0.0800
     22 C22        -9.8412    2.0950   62.8896 C.3     1  ZINC000981048968   -0.1600
     23 C23       -10.4205    3.1198   63.8669 C.3     1  ZINC000981048968   -0.1500
     24 N24       -13.0013    0.8506   62.1915 N.2     1  ZINC000981048968   -0.4600
     25 C25       -12.9134   -1.3885   58.7610 C.3     1  ZINC000981048968   -0.1300
     26 C26        -7.8116   -3.3472   59.1825 C.2     1  ZINC000981048968    0.0200
     27 O27        -6.7941   -3.6987   58.3905 O.3     1  ZINC000981048968   -0.1700
     28 H28        -5.3235   -4.5123   56.3424 H       1  ZINC000981048968    0.0800
     29 H29        -6.6423   -5.5567   55.7610 H       1  ZINC000981048968    0.0900
     30 H30        -6.5165   -3.8776   55.1839 H       1  ZINC000981048968    0.0900
     31 H31        -9.2280   -4.2337   56.3308 H       1  ZINC000981048968    0.1600
     32 H32       -11.1896   -3.2570   57.1361 H       1  ZINC000981048968    0.4000
     33 H33       -13.5708   -2.8902   56.5830 H       1  ZINC000981048968    0.0700
     34 H34       -13.5900   -4.4770   57.3894 H       1  ZINC000981048968    0.0700
     35 H35       -15.8668   -3.4995   57.2942 H       1  ZINC000981048968    0.0700
     36 H36       -15.3058   -3.6496   58.9768 H       1  ZINC000981048968    0.0600
     37 H37       -15.1853   -1.1153   57.2798 H       1  ZINC000981048968    0.0700
     38 H38       -16.3547   -1.4376   58.5824 H       1  ZINC000981048968    0.0700
     39 H39       -13.6513    0.8228   59.3203 H       1  ZINC000981048968    0.3500
     40 H40       -15.9979    1.2174   60.6479 H       1  ZINC000981048968    0.1100
     41 H41       -15.3545   -0.3233   61.2650 H       1  ZINC000981048968    0.0600
     42 H42       -11.1346    1.0551   64.4113 H       1  ZINC000981048968    0.1500
     43 H43        -8.9564    1.5424   63.2056 H       1  ZINC000981048968    0.1200
     44 H44        -9.8957    2.3270   61.8260 H       1  ZINC000981048968    0.1100
     45 H45       -10.8562    4.0260   63.4463 H       1  ZINC000981048968    0.1000
     46 H46        -9.9168    3.2413   64.8259 H       1  ZINC000981048968    0.1200
     47 H47       -12.1954   -1.0239   59.4956 H       1  ZINC000981048968    0.0700
     48 H48       -12.7564   -0.8737   57.8131 H       1  ZINC000981048968    0.0800
     49 H49        -7.7282   -3.0000   60.2018 H       1  ZINC000981048968    0.2100
@<TRIPOS>BOND
     1     1     2    1
     2     1    28    1
     3     1    29    1
     4     1    30    1
     5     2    27    1
     6     2     3    2
     7     3     4    1
     8     3    31    1
     9     4     5    1
    10     4    26    2
    11     5     6    2
    12     5     7   am
    13     7     8    1
    14     7    32    1
    15     8     9    1
    16     8    25    1
    17     8    10    1
    18    10    11    1
    19    10    33    1
    20    10    34    1
    21    11    12    1
    22    11    35    1
    23    11    36    1
    24    12    13    1
    25    12    37    1
    26    12    38    1
    27    13    14    1
    28    13    15    1
    29    13    25    1
    30    15    16    1
    31    15    39    1
    32    16    17    1
    33    16    40    1
    34    16    41    1
    35    17    24    1
    36    17    18    2
    37    18    19    1
    38    19    20    1
    39    20    21    1
    40    20    24    2
    41    21    23    1
    42    21    22    1
    43    21    42    1
    44    22    23    1
    45    22    43    1
    46    22    44    1
    47    23    45    1
    48    23    46    1
    49    25    47    1
    50    25    48    1
    51    26    27    1
    52    26    49    1
@<TRIPOS>SUBSTRUCTURE
     1 ZINC000981048968        1 TEMP              0 ****  ****    0 ROOT


##########                                Name:    ZINC000957079511
##########                DOCK_Rotatable_Bonds:                   8
##########                         Heavy_Atoms:                  25
##########                    Molecular_Weight:             362.453
##########                DOCK_Rotatable_Bonds:                   8
##########                       Formal_Charge:        -4.32134e-07
##########                     HBond_Acceptors:                   8
##########                        HBond_Donors:                   2
##########                         Heavy_Atoms:                  25
##########                          Grid_Score:          -35.133144
##########                     Grid_vdw_energy:          -30.823538
##########                      Grid_es_energy:           -4.309608
##########           Internal_energy_repulsive:            8.814662

@<TRIPOS>MOLECULE
ZINC000957079511
 47 49 1 0 0
SMALL
USER_CHARGES


@<TRIPOS>ATOM
      1 C1        -14.1346    3.8197   62.6505 C.3     1  ZINC000957079511   -0.0700
      2 C2        -13.4999    3.3187   63.9222 C.2     1  ZINC000957079511    0.0300
      3 C3        -12.3027    2.7103   64.0227 C.2     1  ZINC000957079511   -0.0200
      4 C4        -11.3529    2.4044   62.8934 C.3     1  ZINC000957079511   -0.0600
      5 C5        -11.6478    1.0312   62.3470 C.2     1  ZINC000957079511    0.5100
      6 O6        -11.1146    0.0571   62.8346 O.2     1  ZINC000957079511   -0.5200
      7 N7        -12.5040    0.8857   61.3164 N.am    1  ZINC000957079511   -0.7200
      8 C8        -12.7893   -0.4490   60.7840 C.3     1  ZINC000957079511    0.1400
      9 H9        -13.0517   -1.1392   61.5857 H       1  ZINC000957079511    0.1100
     10 C10       -11.5927   -0.9852   59.9590 C.3     1  ZINC000957079511    0.0800
     11 N11       -12.1854   -1.9581   59.0233 N.am    1  ZINC000957079511   -0.6200
     12 C12       -11.5351   -2.9863   58.4431 C.2     1  ZINC000957079511    0.5400
     13 O13       -12.1260   -3.7285   57.6875 O.2     1  ZINC000957079511   -0.5100
     14 C14       -10.0740   -3.2138   58.7335 C.3     1  ZINC000957079511    0.0500
     15 O15        -9.4418   -3.7775   57.5825 O.3     1  ZINC000957079511   -0.2800
     16 C16        -8.0797   -3.7917   57.5697 C.2     1  ZINC000957079511    0.1200
     17 C17        -7.3729   -4.0353   56.4621 C.2     1  ZINC000957079511   -0.3300
     18 S18        -5.6547   -3.9704   56.8321 S.3     1  ZINC000957079511    0.1300
     19 C19        -5.9995   -3.6056   58.5177 C.2     1  ZINC000957079511   -0.1800
     20 C20        -7.3196   -3.5486   58.7037 C.2     1  ZINC000957079511   -0.1400
     21 C21       -13.6032   -1.6216   58.8284 C.3     1  ZINC000957079511    0.1100
     22 C22       -13.9083   -0.3922   59.7107 C.3     1  ZINC000957079511   -0.1100
     23 H23       -13.8376    0.5270   59.1290 H       1  ZINC000957079511    0.0900
     24 C24       -15.2904   -0.5177   60.3549 C.3     1  ZINC000957079511   -0.1400
     25 N25       -12.1141    2.4237   65.3478 N.pl3   1  ZINC000957079511   -0.5600
     26 C26       -13.2035    2.8671   66.0114 C.2     1  ZINC000957079511    0.2000
     27 N27       -14.0258    3.4057   65.1530 N.2     1  ZINC000957079511   -0.4900
     28 H28       -13.8310    4.8518   62.4750 H       1  ZINC000957079511    0.0700
     29 H29       -13.8123    3.1990   61.8145 H       1  ZINC000957079511    0.0600
     30 H30       -15.2197    3.7708   62.7423 H       1  ZINC000957079511    0.0700
     31 H31       -11.4777    3.1445   62.1030 H       1  ZINC000957079511    0.1000
     32 H32       -10.3277    2.4363   63.2623 H       1  ZINC000957079511    0.1200
     33 H33       -12.9314    1.6647   60.9271 H       1  ZINC000957079511    0.4000
     34 H34       -11.1161   -0.1729   59.4103 H       1  ZINC000957079511    0.0800
     35 H35       -10.8720   -1.4773   60.6119 H       1  ZINC000957079511    0.0800
     36 H36        -9.6002   -2.2635   58.9793 H       1  ZINC000957079511    0.0900
     37 H37        -9.9732   -3.8987   59.5754 H       1  ZINC000957079511    0.0900
     38 H38        -7.7926   -4.2412   55.4885 H       1  ZINC000957079511    0.1700
     39 H39        -5.2558   -3.4476   59.2847 H       1  ZINC000957079511    0.1800
     40 H40        -7.7623   -3.3369   59.6658 H       1  ZINC000957079511    0.1500
     41 H41       -13.7867   -1.3815   57.7812 H       1  ZINC000957079511    0.0800
     42 H42       -14.2286   -2.4605   59.1337 H       1  ZINC000957079511    0.0800
     43 H43       -15.3302   -1.4267   60.9551 H       1  ZINC000957079511    0.0600
     44 H44       -15.4739    0.3471   60.9925 H       1  ZINC000957079511    0.0600
     45 H45       -16.0515   -0.5629   59.5759 H       1  ZINC000957079511    0.0700
     46 H46       -11.3423    1.9840   65.7374 H       1  ZINC000957079511    0.4200
     47 H47       -13.3655    2.7922   67.0766 H       1  ZINC000957079511    0.2100
@<TRIPOS>BOND
     1     1     2    1
     2     1    28    1
     3     1    29    1
     4     1    30    1
     5     2    27    1
     6     2     3    2
     7     3     4    1
     8     3    25    1
     9     4     5    1
    10     4    31    1
    11     4    32    1
    12     5     6    2
    13     5     7   am
    14     7     8    1
    15     7    33    1
    16     8     9    1
    17     8    22    1
    18     8    10    1
    19    10    11    1
    20    10    34    1
    21    10    35    1
    22    11    12   am
    23    11    21    1
    24    12    13    2
    25    12    14    1
    26    14    15    1
    27    14    36    1
    28    14    37    1
    29    15    16    1
    30    16    20    1
    31    16    17    2
    32    17    18    1
    33    17    38    1
    34    18    19    1
    35    19    20    2
    36    19    39    1
    37    20    40    1
    38    21    22    1
    39    21    41    1
    40    21    42    1
    41    22    23    1
    42    22    24    1
    43    24    43    1
    44    24    44    1
    45    24    45    1
    46    25    26    1
    47    25    46    1
    48    26    27    2
    49    26    47    1
@<TRIPOS>SUBSTRUCTURE
     1 ZINC000957079511        1 TEMP              0 ****  ****    0 ROOT


##########                                Name:    ZINC001500042809
##########                DOCK_Rotatable_Bonds:                   9
##########                         Heavy_Atoms:                  24
##########                    Molecular_Weight:              346.45
##########                DOCK_Rotatable_Bonds:                   9
##########                       Formal_Charge:           0.0200001
##########                     HBond_Acceptors:                   6
##########                        HBond_Donors:                   2
##########                         Heavy_Atoms:                  24
##########                          Grid_Score:          -35.080452
##########                     Grid_vdw_energy:          -34.882442
##########                      Grid_es_energy:           -0.198009
##########           Internal_energy_repulsive:           12.786130

@<TRIPOS>MOLECULE
ZINC001500042809
 46 47 1 0 0
SMALL
USER_CHARGES


@<TRIPOS>ATOM
      1 C1         -6.2118   -4.2039   56.9995 C.3     1  ZINC001500042809    0.0200
      2 O2         -7.5107   -4.7407   57.2573 O.3     1  ZINC001500042809   -0.3100
      3 C3         -8.4208   -3.9074   57.8222 C.ar    1  ZINC001500042809    0.1600
      4 C4         -9.6390   -3.6817   57.1921 C.ar    1  ZINC001500042809   -0.1600
      5 C5        -10.5649   -2.8364   57.7619 C.ar    1  ZINC001500042809   -0.0200
      6 C6        -10.2784   -2.2056   58.9754 C.ar    1  ZINC001500042809   -0.1800
      7 C7        -11.2681   -1.2990   59.5895 C.2     1  ZINC001500042809    0.5600
      8 O8        -12.4135   -1.6715   59.7552 O.2     1  ZINC001500042809   -0.5300
      9 N9        -10.9019   -0.0579   59.9669 N.am    1  ZINC001500042809   -0.7300
     10 C10       -11.8836    0.8415   60.5781 C.3     1  ZINC001500042809    0.1300
     11 C11       -11.2432    1.5650   61.7643 C.3     1  ZINC001500042809   -0.1200
     12 H12       -10.1580    1.4957   61.6894 H       1  ZINC001500042809    0.0900
     13 C13       -11.6625    3.0364   61.7511 C.3     1  ZINC001500042809   -0.1500
     14 C14       -11.7069    0.9143   63.0692 C.3     1  ZINC001500042809    0.1300
     15 N15       -10.6984    1.1327   64.1091 N.am    1  ZINC001500042809   -0.7300
     16 C16        -9.5121    0.4966   64.0415 C.2     1  ZINC001500042809    0.5900
     17 O17        -9.2782   -0.2580   63.1159 O.2     1  ZINC001500042809   -0.5200
     18 C18        -8.5037    0.7138   65.0830 C.2     1  ZINC001500042809   -0.2800
     19 C19        -8.1733    1.9231   65.6267 C.2     1  ZINC001500042809   -0.0100
     20 C20        -8.8198    3.2208   65.2155 C.3     1  ZINC001500042809   -0.1100
     21 C21        -7.1929    1.8381   66.5866 C.2     1  ZINC001500042809   -0.1500
     22 C22        -6.7348    0.6030   66.8222 C.2     1  ZINC001500042809   -0.2200
     23 S23        -7.5306   -0.5410   65.8380 S.3     1  ZINC001500042809    0.1900
     24 C24        -9.0506   -2.4311   59.6030 C.ar    1  ZINC001500042809   -0.0400
     25 C25        -8.1320   -3.2814   59.0292 C.ar    1  ZINC001500042809   -0.2200
     26 H26        -6.2971   -3.3578   56.3176 H       1  ZINC001500042809    0.0600
     27 H27        -5.7634   -3.8721   57.9359 H       1  ZINC001500042809    0.0600
     28 H28        -5.5841   -4.9724   56.5483 H       1  ZINC001500042809    0.1000
     29 H29        -9.8596   -4.1696   56.2542 H       1  ZINC001500042809    0.1400
     30 H30       -11.5108   -2.6612   57.2713 H       1  ZINC001500042809    0.1400
     31 H31        -9.9883    0.2397   59.8337 H       1  ZINC001500042809    0.4000
     32 H32       -12.7401    0.2630   60.9246 H       1  ZINC001500042809    0.0800
     33 H33       -12.2139    1.5736   59.8412 H       1  ZINC001500042809    0.0800
     34 H34       -11.3322    3.4999   60.8215 H       1  ZINC001500042809    0.0600
     35 H35       -12.7477    3.1056   61.8261 H       1  ZINC001500042809    0.0600
     36 H36       -11.2063    3.5518   62.5963 H       1  ZINC001500042809    0.0600
     37 H37       -12.6522    1.3585   63.3808 H       1  ZINC001500042809    0.0800
     38 H38       -11.8423   -0.1560   62.9134 H       1  ZINC001500042809    0.0800
     39 H39       -10.8844    1.7352   64.8463 H       1  ZINC001500042809    0.4000
     40 H40        -9.6944    3.4048   65.8395 H       1  ZINC001500042809    0.0800
     41 H41        -8.1076    4.0366   65.3385 H       1  ZINC001500042809    0.0700
     42 H42        -9.1253    3.1595   64.1709 H       1  ZINC001500042809    0.0900
     43 H43        -6.8194    2.7047   67.1117 H       1  ZINC001500042809    0.1500
     44 H44        -5.9668    0.3622   67.5424 H       1  ZINC001500042809    0.1700
     45 H45        -8.8238   -1.9419   60.5388 H       1  ZINC001500042809    0.1300
     46 H46        -7.1840   -3.4587   59.5153 H       1  ZINC001500042809    0.1400
@<TRIPOS>BOND
     1     1     2    1
     2     1    26    1
     3     1    27    1
     4     1    28    1
     5     2     3    1
     6     3    25   ar
     7     3     4   ar
     8     4     5   ar
     9     4    29    1
    10     5     6   ar
    11     5    30    1
    12     6     7    1
    13     6    24   ar
    14     7     8    2
    15     7     9   am
    16     9    10    1
    17     9    31    1
    18    10    11    1
    19    10    32    1
    20    10    33    1
    21    11    12    1
    22    11    13    1
    23    11    14    1
    24    13    34    1
    25    13    35    1
    26    13    36    1
    27    14    15    1
    28    14    37    1
    29    14    38    1
    30    15    16   am
    31    15    39    1
    32    16    17    2
    33    16    18    1
    34    18    23    1
    35    18    19    2
    36    19    20    1
    37    19    21    1
    38    20    40    1
    39    20    41    1
    40    20    42    1
    41    21    22    2
    42    21    43    1
    43    22    23    1
    44    22    44    1
    45    24    25   ar
    46    24    45    1
    47    25    46    1
@<TRIPOS>SUBSTRUCTURE
     1 ZINC001500042809        1 TEMP              0 ****  ****    0 ROOT


##########                                Name:    ZINC000562561773
##########                DOCK_Rotatable_Bonds:                   6
##########                         Heavy_Atoms:                  26
##########                    Molecular_Weight:             371.466
##########                DOCK_Rotatable_Bonds:                   6
##########                       Formal_Charge:           0.0199999
##########                     HBond_Acceptors:                   9
##########                        HBond_Donors:                   0
##########                         Heavy_Atoms:                  26
##########                          Grid_Score:          -35.039978
##########                     Grid_vdw_energy:          -33.703323
##########                      Grid_es_energy:           -1.336655
##########           Internal_energy_repulsive:           12.217784

@<TRIPOS>MOLECULE
ZINC000562561773
 47 50 1 0 0
SMALL
USER_CHARGES


@<TRIPOS>ATOM
      1 C1         -6.8610    1.8293   66.8410 C.3     1  ZINC000562561773   -0.1100
      2 C2         -7.6065    1.3876   65.6080 C.ar    1  ZINC000562561773   -0.0400
      3 C3         -7.6558    0.0474   65.2758 C.ar    1  ZINC000562561773   -0.1200
      4 C4         -8.3372   -0.3639   64.1473 C.ar    1  ZINC000562561773   -0.0700
      5 C5         -8.9779    0.5733   63.3393 C.ar    1  ZINC000562561773   -0.0300
      6 C6         -9.7110    0.1325   62.1263 C.2     1  ZINC000562561773    0.2200
      7 N7        -10.7011    0.7599   61.5469 N.2     1  ZINC000562561773   -0.3700
      8 O8        -11.0796    0.1365   60.5779 O.3     1  ZINC000562561773    0.0900
      9 C9        -10.3533   -0.9768   60.4375 C.2     1  ZINC000562561773    0.1900
     10 C10       -10.5092   -2.0172   59.3585 C.3     1  ZINC000562561773   -0.0100
     11 C11        -9.1448   -2.6334   59.0431 C.3     1  ZINC000562561773   -0.1200
     12 S12        -9.3659   -4.0672   57.9607 S.3     1  ZINC000562561773    0.0600
     13 C13        -7.9323   -3.9104   56.9484 C.2     1  ZINC000562561773    0.2100
     14 N14        -7.8878   -4.0014   55.6369 N.2     1  ZINC000562561773   -0.3300
     15 N15        -6.6859   -3.8380   55.2152 N.2     1  ZINC000562561773   -0.0300
     16 N16        -5.8872   -3.6341   56.2063 N.2     1  ZINC000562561773   -0.0700
     17 N17        -6.6699   -3.6677   57.3736 N.pl3   1  ZINC000562561773   -0.3600
     18 C18        -6.2156   -3.4878   58.7546 C.3     1  ZINC000562561773    0.0800
     19 N19        -9.4761   -0.9902   61.4101 N.2     1  ZINC000562561773   -0.4600
     20 C20        -8.9290    1.9241   63.6729 C.ar    1  ZINC000562561773   -0.1100
     21 C21        -8.2475    2.3288   64.8110 C.ar    1  ZINC000562561773    0.0800
     22 N22        -8.1960    3.6830   65.1502 N.3     1  ZINC000562561773   -0.4800
     23 C23        -7.4686    4.4633   64.1166 C.3     1  ZINC000562561773    0.0400
     24 C24        -7.9542    5.9143   64.3607 C.3     1  ZINC000562561773   -0.1200
     25 C25        -9.4434    5.7231   64.7290 C.3     1  ZINC000562561773   -0.1300
     26 C26        -9.5540    4.2655   65.2138 C.3     1  ZINC000562561773    0.0400
     27 H27        -7.5375    1.8249   67.6957 H       1  ZINC000562561773    0.0700
     28 H28        -6.0331    1.1459   67.0295 H       1  ZINC000562561773    0.0600
     29 H29        -6.4734    2.8368   66.6898 H       1  ZINC000562561773    0.0800
     30 H30        -7.1596   -0.6808   65.9005 H       1  ZINC000562561773    0.1400
     31 H31        -8.3732   -1.4124   63.8907 H       1  ZINC000562561773    0.1400
     32 H32       -11.1896   -2.7968   59.7011 H       1  ZINC000562561773    0.1200
     33 H33       -10.9138   -1.5511   58.4601 H       1  ZINC000562561773    0.1300
     34 H34        -8.5189   -1.8941   58.5434 H       1  ZINC000562561773    0.1100
     35 H35        -8.6653   -2.9484   59.9699 H       1  ZINC000562561773    0.1100
     36 H36        -6.2635   -2.4312   59.0182 H       1  ZINC000562561773    0.1000
     37 H37        -6.8573   -4.0590   59.4256 H       1  ZINC000562561773    0.1000
     38 H38        -5.1881   -3.8393   58.8478 H       1  ZINC000562561773    0.1100
     39 H39        -9.4238    2.6541   63.0495 H       1  ZINC000562561773    0.1300
     40 H40        -6.3914    4.3881   64.2649 H       1  ZINC000562561773    0.0900
     41 H41        -7.7447    4.1285   63.1166 H       1  ZINC000562561773    0.0500
     42 H42        -7.4081    6.3699   65.1867 H       1  ZINC000562561773    0.0800
     43 H43        -7.8546    6.5120   63.4547 H       1  ZINC000562561773    0.0700
     44 H44        -9.7271    6.4096   65.5267 H       1  ZINC000562561773    0.0800
     45 H45       -10.0729    5.8791   63.8528 H       1  ZINC000562561773    0.0700
     46 H46       -10.2279    3.7080   64.5634 H       1  ZINC000562561773    0.0500
     47 H47        -9.9203    4.2423   66.2401 H       1  ZINC000562561773    0.0800
@<TRIPOS>BOND
     1     1     2    1
     2     1    27    1
     3     1    28    1
     4     1    29    1
     5     2    21   ar
     6     2     3   ar
     7     3     4   ar
     8     3    30    1
     9     4     5   ar
    10     4    31    1
    11     5     6    1
    12     5    20   ar
    13     6    19    1
    14     6     7    2
    15     7     8    1
    16     8     9    1
    17     9    10    1
    18     9    19    2
    19    10    11    1
    20    10    32    1
    21    10    33    1
    22    11    12    1
    23    11    34    1
    24    11    35    1
    25    12    13    1
    26    13    17    1
    27    13    14    2
    28    14    15    1
    29    15    16    2
    30    16    17    1
    31    17    18    1
    32    18    36    1
    33    18    37    1
    34    18    38    1
    35    20    21   ar
    36    20    39    1
    37    21    22    1
    38    22    26    1
    39    22    23    1
    40    23    24    1
    41    23    40    1
    42    23    41    1
    43    24    25    1
    44    24    42    1
    45    24    43    1
    46    25    26    1
    47    25    44    1
    48    25    45    1
    49    26    46    1
    50    26    47    1
@<TRIPOS>SUBSTRUCTURE
     1 ZINC000562561773        1 TEMP              0 ****  ****    0 ROOT


##########                                Name:    ZINC000573650873
##########                DOCK_Rotatable_Bonds:                  10
##########                         Heavy_Atoms:                  28
##########                    Molecular_Weight:             418.843
##########                DOCK_Rotatable_Bonds:                  10
##########                       Formal_Charge:          -0.0500001
##########                     HBond_Acceptors:                   9
##########                        HBond_Donors:                   1
##########                         Heavy_Atoms:                  28
##########                          Grid_Score:          -35.009289
##########                     Grid_vdw_energy:          -33.557037
##########                      Grid_es_energy:           -1.452252
##########           Internal_energy_repulsive:           18.016460

@<TRIPOS>MOLECULE
ZINC000573650873
 50 51 1 0 0
SMALL
USER_CHARGES


@<TRIPOS>ATOM
      1 C1        -11.1375    4.6021   60.6867 C.3     1  ZINC000573650873   -0.1400
      2 C2        -10.2785    3.7938   61.6613 C.3     1  ZINC000573650873    0.0100
      3 C3         -8.8060    3.9135   61.2636 C.3     1  ZINC000573650873   -0.1400
      4 C4        -10.4693    4.3358   63.0794 C.3     1  ZINC000573650873   -0.1500
      5 C5        -10.6949    2.3462   61.6166 C.2     1  ZINC000573650873   -0.0100
      6 C6        -11.7888    1.8387   61.0025 C.2     1  ZINC000573650873   -0.1800
      7 C7        -11.7102    0.4422   61.2625 C.2     1  ZINC000573650873   -0.0300
      8 C8        -12.6642   -0.6025   60.8168 C.2     1  ZINC000573650873    0.6000
      9 O9        -13.7949   -0.6220   61.2609 O.2     1  ZINC000573650873   -0.5100
     10 N10       -12.2766   -1.5303   59.9192 N.am    1  ZINC000573650873   -0.5900
     11 C11       -10.9132   -1.5068   59.3836 C.3     1  ZINC000573650873    0.1200
     12 C12       -10.1631   -2.7585   59.8436 C.3     1  ZINC000573650873   -0.1000
     13 C13        -9.1844   -3.1779   58.7773 C.ar    1  ZINC000573650873   -0.0800
     14 C14        -9.6173   -3.3672   57.4781 C.ar    1  ZINC000573650873   -0.1000
     15 C15        -8.7201   -3.7519   56.4995 C.ar    1  ZINC000573650873   -0.1100
     16 C16        -7.3887   -3.9473   56.8204 C.ar    1  ZINC000573650873   -0.0400
     17 Cl17       -6.2611   -4.4299   55.5918 Cl      1  ZINC000573650873   -0.0700
     18 C18        -6.9560   -3.7577   58.1208 C.ar    1  ZINC000573650873   -0.1100
     19 C19        -7.8531   -3.3676   59.0973 C.ar    1  ZINC000573650873   -0.1000
     20 C20       -13.2189   -2.5620   59.4789 C.3     1  ZINC000573650873    0.0700
     21 C21       -14.2048   -1.9581   58.4766 C.3     1  ZINC000573650873    0.0600
     22 H22       -14.9536   -1.3734   59.0109 H       1  ZINC000573650873    0.1400
     23 O23       -13.5000   -1.1117   57.5663 O.3     1  ZINC000573650873   -0.5200
     24 C24       -14.8941   -3.0813   57.6994 C.3     1  ZINC000573650873    0.4300
     25 F25       -15.4770   -3.9809   58.5983 F       1  ZINC000573650873   -0.1700
     26 F26       -15.8850   -2.5379   56.8749 F       1  ZINC000573650873   -0.1700
     27 F27       -13.9504   -3.7523   56.9142 F       1  ZINC000573650873   -0.1800
     28 N28       -10.6251    0.2651   61.9744 N.2     1  ZINC000573650873   -0.3400
     29 O29       -10.0509    1.3106   62.1723 O.3     1  ZINC000573650873    0.1300
     30 H30       -11.0015    4.2160   59.6764 H       1  ZINC000573650873    0.0600
     31 H31       -12.1865    4.5168   60.9701 H       1  ZINC000573650873    0.0600
     32 H32       -10.8363    5.6491   60.7192 H       1  ZINC000573650873    0.0700
     33 H33        -8.5049    4.9605   61.2959 H       1  ZINC000573650873    0.0700
     34 H34        -8.1942    3.3377   61.9580 H       1  ZINC000573650873    0.0600
     35 H35        -8.6700    3.5274   60.2533 H       1  ZINC000573650873    0.0600
     36 H36       -11.5184    4.2505   63.3629 H       1  ZINC000573650873    0.0600
     37 H37        -9.8575    3.7601   63.7738 H       1  ZINC000573650873    0.0600
     38 H38       -10.1682    5.3829   63.1118 H       1  ZINC000573650873    0.0700
     39 H39       -12.5456    2.3703   60.4449 H       1  ZINC000573650873    0.1800
     40 H40       -10.9510   -1.4856   58.2945 H       1  ZINC000573650873    0.0900
     41 H41       -10.3955   -0.6190   59.7467 H       1  ZINC000573650873    0.1000
     42 H42        -9.6244   -2.5408   60.7659 H       1  ZINC000573650873    0.0800
     43 H43       -10.8753   -3.5645   60.0204 H       1  ZINC000573650873    0.0800
     44 H44       -10.6568   -3.2149   57.2277 H       1  ZINC000573650873    0.1300
     45 H45        -9.0585   -3.9002   55.4847 H       1  ZINC000573650873    0.1300
     46 H46        -5.9168   -3.9104   58.3721 H       1  ZINC000573650873    0.1300
     47 H47        -7.5154   -3.2192   60.1124 H       1  ZINC000573650873    0.1300
     48 H48       -12.6709   -3.3758   59.0042 H       1  ZINC000573650873    0.1000
     49 H49       -13.7658   -2.9460   60.3401 H       1  ZINC000573650873    0.1200
     50 H50       -13.0047   -0.3998   57.9942 H       1  ZINC000573650873    0.3900
@<TRIPOS>BOND
     1     1     2    1
     2     1    30    1
     3     1    31    1
     4     1    32    1
     5     2     3    1
     6     2     4    1
     7     2     5    1
     8     3    33    1
     9     3    34    1
    10     3    35    1
    11     4    36    1
    12     4    37    1
    13     4    38    1
    14     5    29    1
    15     5     6    2
    16     6     7    1
    17     6    39    1
    18     7     8    1
    19     7    28    2
    20     8     9    2
    21     8    10   am
    22    10    11    1
    23    10    20    1
    24    11    12    1
    25    11    40    1
    26    11    41    1
    27    12    13    1
    28    12    42    1
    29    12    43    1
    30    13    19   ar
    31    13    14   ar
    32    14    15   ar
    33    14    44    1
    34    15    16   ar
    35    15    45    1
    36    16    17    1
    37    16    18   ar
    38    18    19   ar
    39    18    46    1
    40    19    47    1
    41    20    21    1
    42    20    48    1
    43    20    49    1
    44    21    22    1
    45    21    23    1
    46    21    24    1
    47    23    50    1
    48    24    25    1
    49    24    26    1
    50    24    27    1
    51    28    29    1
@<TRIPOS>SUBSTRUCTURE
     1 ZINC000573650873        1 TEMP              0 ****  ****    0 ROOT


##########                                Name:    ZINC000011157684
##########                DOCK_Rotatable_Bonds:                   7
##########                         Heavy_Atoms:                  25
##########                    Molecular_Weight:             374.866
##########                DOCK_Rotatable_Bonds:                   7
##########                       Formal_Charge:           0.0400001
##########                     HBond_Acceptors:                   6
##########                        HBond_Donors:                   2
##########                         Heavy_Atoms:                  25
##########                          Grid_Score:          -34.975311
##########                     Grid_vdw_energy:          -32.871616
##########                      Grid_es_energy:           -2.103693
##########           Internal_energy_repulsive:           10.422258

@<TRIPOS>MOLECULE
ZINC000011157684
 41 43 1 0 0
SMALL
USER_CHARGES


@<TRIPOS>ATOM
      1 O1        -12.5663   -0.6557   61.5076 O.2     1  ZINC000011157684   -0.5200
      2 C2        -11.7313   -0.3225   60.6935 C.2     1  ZINC000011157684    0.5100
      3 C3        -11.6284   -1.0512   59.3784 C.3     1  ZINC000011157684    0.1000
      4 N4        -11.1297   -2.4090   59.6101 N.pl3   1  ZINC000011157684   -0.7300
      5 C5        -10.1061   -2.9248   58.8078 C.ar    1  ZINC000011157684    0.2200
      6 C6         -8.8113   -3.0078   59.3010 C.ar    1  ZINC000011157684   -0.1600
      7 C7         -7.8019   -3.5179   58.5073 C.ar    1  ZINC000011157684   -0.0900
      8 C8         -8.0805   -3.9457   57.2205 C.ar    1  ZINC000011157684    0.0500
      9 F9         -7.0916   -4.4436   56.4464 F       1  ZINC000011157684   -0.1400
     10 C10        -9.3714   -3.8645   56.7257 C.ar    1  ZINC000011157684   -0.0900
     11 C11       -10.3853   -3.3600   57.5176 C.ar    1  ZINC000011157684   -0.0900
     12 Cl12      -12.0035   -3.2582   56.8973 Cl      1  ZINC000011157684   -0.0500
     13 N13       -10.8992    0.7029   60.9627 N.am    1  ZINC000011157684   -0.7200
     14 C14       -10.9992    1.4112   62.2411 C.3     1  ZINC000011157684    0.2600
     15 H15       -11.9963    1.2693   62.6581 H       1  ZINC000011157684    0.1200
     16 C16       -10.7509    2.8814   62.0218 C.2     1  ZINC000011157684   -0.1900
     17 C17       -11.6541    3.7555   61.5753 C.2     1  ZINC000011157684   -0.1200
     18 C18       -11.1962    5.0562   61.4534 C.2     1  ZINC000011157684   -0.1300
     19 C19        -9.9213    5.2382   61.8008 C.2     1  ZINC000011157684   -0.2100
     20 S20        -9.2280    3.7083   62.3227 S.3     1  ZINC000011157684    0.1100
     21 C21        -9.9719    0.8657   63.1993 C.ar    1  ZINC000011157684   -0.0900
     22 C22        -9.8913    1.3666   64.4851 C.ar    1  ZINC000011157684   -0.1100
     23 C23        -8.9490    0.8662   65.3641 C.ar    1  ZINC000011157684   -0.1100
     24 C24        -8.0876   -0.1354   64.9573 C.ar    1  ZINC000011157684   -0.1100
     25 C25        -8.1688   -0.6371   63.6718 C.ar    1  ZINC000011157684   -0.1100
     26 C26        -9.1139   -0.1397   62.7941 C.ar    1  ZINC000011157684   -0.1000
     27 H27       -12.6125   -1.1002   58.9121 H       1  ZINC000011157684    0.1000
     28 H28       -10.9410   -0.5189   58.7209 H       1  ZINC000011157684    0.1000
     29 H29       -11.5091   -2.9505   60.3198 H       1  ZINC000011157684    0.4200
     30 H30        -8.5929   -2.6737   60.3046 H       1  ZINC000011157684    0.1400
     31 H31        -6.7945   -3.5827   58.8910 H       1  ZINC000011157684    0.1400
     32 H32        -9.5867   -4.1992   55.7216 H       1  ZINC000011157684    0.1500
     33 H33       -10.2340    0.9719   60.3098 H       1  ZINC000011157684    0.4000
     34 H34       -12.6657    3.4700   61.3273 H       1  ZINC000011157684    0.1400
     35 H35       -11.8238    5.8624   61.1031 H       1  ZINC000011157684    0.1400
     36 H36        -9.3962    6.1814   61.7701 H       1  ZINC000011157684    0.1700
     37 H37       -10.5643    2.1493   64.8029 H       1  ZINC000011157684    0.1200
     38 H38        -8.8856    1.2582   66.3685 H       1  ZINC000011157684    0.1300
     39 H39        -7.3509   -0.5259   65.6439 H       1  ZINC000011157684    0.1300
     40 H40        -7.4956   -1.4194   63.3539 H       1  ZINC000011157684    0.1300
     41 H41        -9.1774   -0.5316   61.7898 H       1  ZINC000011157684    0.1300
@<TRIPOS>BOND
     1     1     2    2
     2     2     3    1
     3     2    13   am
     4     3     4    1
     5     3    27    1
     6     3    28    1
     7     4     5    1
     8     4    29    1
     9     5    11   ar
    10     5     6   ar
    11     6     7   ar
    12     6    30    1
    13     7     8   ar
    14     7    31    1
    15     8     9    1
    16     8    10   ar
    17    10    11   ar
    18    10    32    1
    19    11    12    1
    20    13    14    1
    21    13    33    1
    22    14    15    1
    23    14    16    1
    24    14    21    1
    25    16    20    1
    26    16    17    2
    27    17    18    1
    28    17    34    1
    29    18    19    2
    30    18    35    1
    31    19    20    1
    32    19    36    1
    33    21    26   ar
    34    21    22   ar
    35    22    23   ar
    36    22    37    1
    37    23    24   ar
    38    23    38    1
    39    24    25   ar
    40    24    39    1
    41    25    26   ar
    42    25    40    1
    43    26    41    1
@<TRIPOS>SUBSTRUCTURE
     1 ZINC000011157684        1 TEMP              0 ****  ****    0 ROOT


##########                                Name:    ZINC000848949366
##########                DOCK_Rotatable_Bonds:                   8
##########                         Heavy_Atoms:                  25
##########                    Molecular_Weight:             368.773
##########                DOCK_Rotatable_Bonds:                   8
##########                       Formal_Charge:          0.00999947
##########                     HBond_Acceptors:                   9
##########                        HBond_Donors:                   3
##########                         Heavy_Atoms:                  25
##########                          Grid_Score:          -34.891998
##########                     Grid_vdw_energy:          -32.650642
##########                      Grid_es_energy:           -2.241357
##########           Internal_energy_repulsive:           17.313879

@<TRIPOS>MOLECULE
ZINC000848949366
 42 43 1 0 0
SMALL
USER_CHARGES


@<TRIPOS>ATOM
      1 C1        -12.0796    3.8965   61.0395 C.3     1  ZINC000848949366   -0.1500
      2 C2        -11.7636    2.5253   60.4388 C.3     1  ZINC000848949366    0.0600
      3 O3        -11.2795    1.6561   61.4645 O.3     1  ZINC000848949366   -0.3500
      4 C4         -9.9781    1.7724   61.8023 C.2     1  ZINC000848949366    0.5400
      5 O5         -9.2582    2.5422   61.1942 O.2     1  ZINC000848949366   -0.4800
      6 C6         -9.4509    0.9994   62.8632 C.2     1  ZINC000848949366   -0.2300
      7 C7         -9.0249   -0.2659   62.6603 C.2     1  ZINC000848949366    0.2000
      8 C8         -9.1123   -0.8653   61.2804 C.3     1  ZINC000848949366    0.1000
      9 O9        -10.4896   -1.2261   60.9956 O.3     1  ZINC000848949366   -0.3500
     10 C10       -10.7341   -1.8189   59.8104 C.2     1  ZINC000848949366    0.5100
     11 O11        -9.8212   -2.0296   59.0365 O.2     1  ZINC000848949366   -0.4800
     12 C12       -12.1085   -2.2118   59.4529 C.ar    1  ZINC000848949366   -0.1600
     13 C13       -13.1613   -1.9719   60.3403 C.ar    1  ZINC000848949366   -0.0300
     14 C14       -14.4439   -2.3416   60.0005 C.ar    1  ZINC000848949366   -0.1300
     15 C15       -14.6962   -2.9514   58.7809 C.ar    1  ZINC000848949366    0.0200
     16 Cl16      -16.3175   -3.4125   58.3656 Cl      1  ZINC000848949366   -0.0500
     17 C17       -13.6641   -3.1939   57.8937 C.ar    1  ZINC000848949366   -0.1500
     18 C18       -12.3683   -2.8232   58.2175 C.ar    1  ZINC000848949366    0.1900
     19 O19       -11.3546   -3.0606   57.3482 O.3     1  ZINC000848949366   -0.4700
     20 N20        -8.5157   -1.0110   63.6853 N.am    1  ZINC000848949366   -0.6400
     21 C21        -8.3994   -0.5636   64.9419 C.2     1  ZINC000848949366    0.7100
     22 O22        -7.9332   -1.3017   65.7879 O.2     1  ZINC000848949366   -0.5600
     23 N23        -8.7818    0.6783   65.2994 N.am    1  ZINC000848949366   -0.7100
     24 C24        -9.3393    1.5651   64.2644 C.3     1  ZINC000848949366    0.2000
     25 H25        -8.7226    2.4630   64.2236 H       1  ZINC000848949366    0.0900
     26 C26       -10.7433    1.9819   64.7067 C.3     1  ZINC000848949366   -0.1700
     27 H27       -12.4489    4.5596   60.2571 H       1  ZINC000848949366    0.0800
     28 H28       -12.8401    3.7880   61.8127 H       1  ZINC000848949366    0.0700
     29 H29       -11.1748    4.3190   61.4765 H       1  ZINC000848949366    0.0700
     30 H30       -12.6684    2.1029   60.0018 H       1  ZINC000848949366    0.0700
     31 H31       -11.0031    2.6339   59.6656 H       1  ZINC000848949366    0.0700
     32 H32        -8.7680   -0.1374   60.5457 H       1  ZINC000848949366    0.1100
     33 H33        -8.4857   -1.7558   61.2307 H       1  ZINC000848949366    0.1000
     34 H34       -12.9692   -1.4979   61.2915 H       1  ZINC000848949366    0.1500
     35 H35       -15.2566   -2.1558   60.6870 H       1  ZINC000848949366    0.1500
     36 H36       -13.8682   -3.6694   56.9457 H       1  ZINC000848949366    0.1500
     37 H37       -10.4891   -2.7657   57.6632 H       1  ZINC000848949366    0.4000
     38 H38        -8.2221   -1.9151   63.4921 H       1  ZINC000848949366    0.4300
     39 H39        -8.6889    0.9818   66.2160 H       1  ZINC000848949366    0.4400
     40 H40       -10.6831    2.5068   65.6601 H       1  ZINC000848949366    0.0700
     41 H41       -11.1800    2.6408   63.9561 H       1  ZINC000848949366    0.0700
     42 H42       -11.3672    1.0951   64.8189 H       1  ZINC000848949366    0.0700
@<TRIPOS>BOND
     1     1     2    1
     2     1    27    1
     3     1    28    1
     4     1    29    1
     5     2     3    1
     6     2    30    1
     7     2    31    1
     8     3     4    1
     9     4     5    2
    10     4     6    1
    11     6    24    1
    12     6     7    2
    13     7     8    1
    14     7    20    1
    15     8     9    1
    16     8    32    1
    17     8    33    1
    18     9    10    1
    19    10    11    2
    20    10    12    1
    21    12    18   ar
    22    12    13   ar
    23    13    14   ar
    24    13    34    1
    25    14    15   ar
    26    14    35    1
    27    15    16    1
    28    15    17   ar
    29    17    18   ar
    30    17    36    1
    31    18    19    1
    32    19    37    1
    33    20    21   am
    34    20    38    1
    35    21    22    2
    36    21    23   am
    37    23    24    1
    38    23    39    1
    39    24    25    1
    40    24    26    1
    41    26    40    1
    42    26    41    1
    43    26    42    1
@<TRIPOS>SUBSTRUCTURE
     1 ZINC000848949366        1 TEMP              0 ****  ****    0 ROOT


##########                                Name:    ZINC000762187039
##########                DOCK_Rotatable_Bonds:                   9
##########                         Heavy_Atoms:                  25
##########                    Molecular_Weight:             354.473
##########                DOCK_Rotatable_Bonds:                   9
##########                       Formal_Charge:        -1.78814e-07
##########                     HBond_Acceptors:                   5
##########                        HBond_Donors:                   1
##########                         Heavy_Atoms:                  25
##########                          Grid_Score:          -34.810486
##########                     Grid_vdw_energy:          -32.968811
##########                      Grid_es_energy:           -1.841675
##########           Internal_energy_repulsive:           10.956520

@<TRIPOS>MOLECULE
ZINC000762187039
 47 49 1 0 0
SMALL
USER_CHARGES


@<TRIPOS>ATOM
      1 C1        -13.2878    0.1279   49.2239 C.3     1  ZINC000762187039   -0.0800
      2 C2        -13.2540    0.4113   50.7037 C.2     1  ZINC000762187039    0.0500
      3 N3        -13.5896   -0.4282   51.6242 N.2     1  ZINC000762187039   -0.4700
      4 C4        -13.5003   -0.0178   52.8734 C.2     1  ZINC000762187039    0.0700
      5 C5        -13.8589   -0.8928   54.0466 C.3     1  ZINC000762187039   -0.0300
      6 C6        -15.3401   -0.7116   54.3841 C.3     1  ZINC000762187039   -0.1300
      7 C7        -15.6987   -1.5862   55.5578 C.2     1  ZINC000762187039    0.5200
      8 O8        -16.5781   -1.2465   56.3208 O.2     1  ZINC000762187039   -0.5400
      9 N9        -15.0419   -2.7456   55.7597 N.am    1  ZINC000762187039   -0.7300
     10 C10       -15.3893   -3.5950   56.9016 C.3     1  ZINC000762187039    0.1200
     11 C11       -14.5373   -3.1994   58.1094 C.3     1  ZINC000762187039   -0.1300
     12 C12       -13.0564   -3.3811   57.7705 C.3     1  ZINC000762187039    0.0600
     13 O13       -12.2596   -2.9794   58.8866 O.3     1  ZINC000762187039   -0.3100
     14 C14       -10.9132   -3.1159   58.7642 C.ar    1  ZINC000762187039    0.1300
     15 C15       -10.0893   -2.8405   59.8596 C.ar    1  ZINC000762187039   -0.1900
     16 C16        -8.7382   -2.9679   59.7680 C.ar    1  ZINC000762187039   -0.0600
     17 C17        -8.1578   -3.3823   58.5568 C.ar    1  ZINC000762187039   -0.0800
     18 C18        -6.7657   -3.5248   58.4272 C.ar    1  ZINC000762187039   -0.0900
     19 C19        -6.2374   -3.9286   57.2397 C.ar    1  ZINC000762187039   -0.1300
     20 C20        -7.0566   -4.2041   56.1463 C.ar    1  ZINC000762187039   -0.1000
     21 C21        -8.4087   -4.0772   56.2342 C.ar    1  ZINC000762187039   -0.1200
     22 C22        -8.9912   -3.6625   57.4447 C.ar    1  ZINC000762187039   -0.0100
     23 C23       -10.3826   -3.5257   57.5739 C.ar    1  ZINC000762187039   -0.1500
     24 C24       -13.0650    1.2379   53.0143 C.2     1  ZINC000762187039   -0.2600
     25 S25       -12.7586    1.8893   51.4061 S.3     1  ZINC000762187039    0.1200
     26 H26       -12.9493    1.0083   48.6776 H       1  ZINC000762187039    0.0800
     27 H27       -12.6317   -0.7132   49.0000 H       1  ZINC000762187039    0.0900
     28 H28       -14.3069   -0.1162   48.9239 H       1  ZINC000762187039    0.0900
     29 H29       -13.6689   -1.9359   53.7935 H       1  ZINC000762187039    0.0900
     30 H30       -13.2530   -0.6118   54.9081 H       1  ZINC000762187039    0.0900
     31 H31       -15.5302    0.3315   54.6368 H       1  ZINC000762187039    0.0900
     32 H32       -15.9460   -0.9931   53.5228 H       1  ZINC000762187039    0.1000
     33 H33       -14.3393   -3.0178   55.1488 H       1  ZINC000762187039    0.4000
     34 H34       -16.4442   -3.4654   57.1432 H       1  ZINC000762187039    0.0700
     35 H35       -15.1998   -4.6383   56.6495 H       1  ZINC000762187039    0.0700
     36 H36       -14.7270   -2.1560   58.3616 H       1  ZINC000762187039    0.0800
     37 H37       -14.7958   -3.8313   58.9590 H       1  ZINC000762187039    0.0800
     38 H38       -12.8617   -4.4292   57.5434 H       1  ZINC000762187039    0.0700
     39 H39       -12.8041   -2.7688   56.9047 H       1  ZINC000762187039    0.0700
     40 H40       -10.5319   -2.5219   60.7918 H       1  ZINC000762187039    0.1300
     41 H41        -8.1140   -2.7511   60.6222 H       1  ZINC000762187039    0.1300
     42 H42        -6.1183   -3.3148   59.2658 H       1  ZINC000762187039    0.1300
     43 H43        -5.1672   -4.0369   57.1432 H       1  ZINC000762187039    0.1200
     44 H44        -6.6117   -4.5225   55.2151 H       1  ZINC000762187039    0.1200
     45 H45        -9.0310   -4.2941   55.3786 H       1  ZINC000762187039    0.1300
     46 H46       -11.0295   -3.7397   56.7360 H       1  ZINC000762187039    0.1300
     47 H47       -12.9226    1.7598   53.9490 H       1  ZINC000762187039    0.1800
@<TRIPOS>BOND
     1     1     2    1
     2     1    26    1
     3     1    27    1
     4     1    28    1
     5     2    25    1
     6     2     3    2
     7     3     4    1
     8     4     5    1
     9     4    24    2
    10     5     6    1
    11     5    29    1
    12     5    30    1
    13     6     7    1
    14     6    31    1
    15     6    32    1
    16     7     8    2
    17     7     9   am
    18     9    10    1
    19     9    33    1
    20    10    11    1
    21    10    34    1
    22    10    35    1
    23    11    12    1
    24    11    36    1
    25    11    37    1
    26    12    13    1
    27    12    38    1
    28    12    39    1
    29    13    14    1
    30    14    23   ar
    31    14    15   ar
    32    15    16   ar
    33    15    40    1
    34    16    17   ar
    35    16    41    1
    36    17    22   ar
    37    17    18   ar
    38    18    19   ar
    39    18    42    1
    40    19    20   ar
    41    19    43    1
    42    20    21   ar
    43    20    44    1
    44    21    22   ar
    45    21    45    1
    46    22    23   ar
    47    23    46    1
    48    24    25    1
    49    24    47    1
@<TRIPOS>SUBSTRUCTURE
     1 ZINC000762187039        1 TEMP              0 ****  ****    0 ROOT


##########                                Name:    ZINC000342525234
##########                DOCK_Rotatable_Bonds:                   6
##########                         Heavy_Atoms:                  25
##########                    Molecular_Weight:             333.349
##########                DOCK_Rotatable_Bonds:                   6
##########                       Formal_Charge:           0.0500003
##########                     HBond_Acceptors:                   7
##########                        HBond_Donors:                   2
##########                         Heavy_Atoms:                  25
##########                          Grid_Score:          -34.802547
##########                     Grid_vdw_energy:          -30.835409
##########                      Grid_es_energy:           -3.967139
##########           Internal_energy_repulsive:            4.804524

@<TRIPOS>MOLECULE
ZINC000342525234
 40 43 1 0 0
SMALL
USER_CHARGES


@<TRIPOS>ATOM
      1 O1        -13.7031   -2.7996   59.7614 O.2     1  <0>        -0.5100
      2 C2        -12.6625   -2.1983   59.5832 C.2     1  <0>         0.6000
      3 N3        -12.4504   -1.0203   60.2026 N.am    1  <0>        -0.7100
      4 C4        -13.4770   -0.4618   61.0860 C.3     1  <0>         0.1200
      5 C5        -13.4238    1.0662   61.0277 C.3     1  <0>        -0.0900
      6 C6        -13.2111    1.6147   62.4151 C.ar    1  <0>        -0.0400
      7 C7        -14.1126    2.4918   62.9228 C.ar    1  <0>        -0.1000
      8 C8        -13.9237    3.0123   64.2213 C.ar    1  <0>         0.1100
      9 N9        -14.5883    3.8566   64.9890 N.2     1  <0>        -0.3100
     10 N10       -13.9091    3.9974   66.2045 N.pl3   1  <0>        -0.4200
     11 C11       -12.8070    3.2354   66.2034 C.2     1  <0>         0.0900
     12 C12       -12.7437    2.5813   64.9870 C.ar    1  <0>        -0.2100
     13 C13       -11.8473    1.6658   64.3954 C.ar    1  <0>        -0.0400
     14 C14       -12.0940    1.2016   63.1448 C.ar    1  <0>        -0.1500
     15 C15       -11.6230   -2.7637   58.6887 C.2     1  <0>        -0.0200
     16 N16       -11.8200   -3.4278   57.5761 N.2     1  <0>        -0.3200
     17 O17       -10.7778   -3.7633   57.0639 O.3     1  <0>         0.1400
     18 C18        -9.7161   -3.3585   57.7831 C.2     1  <0>         0.0100
     19 C19        -8.2903   -3.5878   57.4643 C.ar    1  <0>         0.0200
     20 C20        -7.2887   -3.2950   58.3971 C.ar    1  <0>        -0.1400
     21 C21        -5.9712   -3.5248   58.0579 C.ar    1  <0>         0.1100
     22 N22        -5.6514   -4.0124   56.8746 N.ar    1  <0>        -0.4800
     23 C23        -6.5637   -4.3019   55.9666 C.ar    1  <0>         0.1100
     24 C24        -7.9054   -4.1088   56.2238 C.ar    1  <0>        -0.1500
     25 C25       -10.2161   -2.6880   58.8639 C.2     1  <0>        -0.1500
     26 H26       -11.6180   -0.5421   60.0634 H       1  <0>         0.4100
     27 H27       -14.4600   -0.8039   60.7624 H       1  <0>         0.0800
     28 H28       -13.2955   -0.7929   62.1085 H       1  <0>         0.0800
     29 H29       -12.6009    1.3767   60.3840 H       1  <0>         0.0900
     30 H30       -14.3629    1.4472   60.6263 H       1  <0>         0.0800
     31 H31       -14.9694    2.7904   62.3372 H       1  <0>         0.1300
     32 H32       -14.1939    4.5631   66.9391 H       1  <0>         0.4500
     33 H33       -12.0940    3.1479   67.0098 H       1  <0>         0.1900
     34 H34       -10.9735    1.3334   64.9362 H       1  <0>         0.1300
     35 H35       -11.4040    0.5009   62.6983 H       1  <0>         0.1200
     36 H36        -7.5432   -2.8950   59.3674 H       1  <0>         0.1400
     37 H37        -5.1911   -3.3021   58.7708 H       1  <0>         0.1700
     38 H38        -6.2564   -4.6993   55.0107 H       1  <0>         0.1700
     39 H39        -8.6468   -4.3481   55.4757 H       1  <0>         0.1500
     40 H40        -9.6691   -2.2164   59.6670 H       1  <0>         0.1900
@<TRIPOS>BOND
     1     1     2    2
     2     2     3   am
     3     2    15    1
     4     3     4    1
     5     3    26    1
     6     4     5    1
     7     4    27    1
     8     4    28    1
     9     5     6    1
    10     5    29    1
    11     5    30    1
    12     6    14   ar
    13     6     7   ar
    14     7     8   ar
    15     7    31    1
    16     8    12   ar
    17     8     9    2
    18     9    10    1
    19    10    11    1
    20    10    32    1
    21    11    12    2
    22    11    33    1
    23    12    13   ar
    24    13    14   ar
    25    13    34    1
    26    14    35    1
    27    15    25    1
    28    15    16    2
    29    16    17    1
    30    17    18    1
    31    18    19    1
    32    18    25    2
    33    19    24   ar
    34    19    20   ar
    35    20    21   ar
    36    20    36    1
    37    21    22   ar
    38    21    37    1
    39    22    23   ar
    40    23    24   ar
    41    23    38    1
    42    24    39    1
    43    25    40    1
@<TRIPOS>SUBSTRUCTURE
     1 <0>         1 TEMP              0 ****  ****    0 ROOT


##########                                Name:    ZINC000530457945
##########                DOCK_Rotatable_Bonds:                   4
##########                         Heavy_Atoms:                  25
##########                    Molecular_Weight:             355.827
##########                DOCK_Rotatable_Bonds:                   4
##########                       Formal_Charge:           0.0199997
##########                     HBond_Acceptors:                   7
##########                        HBond_Donors:                   1
##########                         Heavy_Atoms:                  25
##########                          Grid_Score:          -34.697552
##########                     Grid_vdw_energy:          -35.085464
##########                      Grid_es_energy:            0.387913
##########           Internal_energy_repulsive:           58.174770

@<TRIPOS>MOLECULE
ZINC000530457945
 43 46 1 0 0
SMALL
USER_CHARGES


@<TRIPOS>ATOM
      1 C1        -12.4936   -0.6421   59.4401 C.3     1  ZINC000530457945   -0.1700
      2 C2        -11.4553   -1.5467   60.1068 C.3     1  ZINC000530457945    0.0900
      3 H3        -11.6666   -1.6304   61.1728 H       1  ZINC000530457945    0.1100
      4 C4        -10.0409   -0.9666   59.8958 C.3     1  ZINC000530457945   -0.1200
      5 H5        -10.0174   -0.3167   59.0210 H       1  ZINC000530457945    0.1100
      6 C6         -9.5820   -0.2219   61.1229 C.2     1  ZINC000530457945    0.5300
      7 O7         -9.5571    0.9906   61.1224 O.2     1  ZINC000530457945   -0.4700
      8 N8         -9.1994   -0.9034   62.2209 N.am    1  ZINC000530457945   -0.6200
      9 C9         -8.7726   -0.2133   63.3577 C.2     1  ZINC000530457945    0.4800
     10 N10        -9.2247    0.9606   63.7494 N.2     1  ZINC000530457945   -0.3000
     11 N11        -8.5390    1.2941   64.9261 N.pl3   1  ZINC000530457945   -0.2800
     12 C12        -8.5910    2.3676   65.7580 C.2     1  ZINC000530457945    0.1400
     13 C13        -7.7957    2.4303   66.8511 C.2     1  ZINC000530457945   -0.0800
     14 Cl14       -7.8761    3.8095   67.9023 Cl      1  ZINC000530457945   -0.0200
     15 C15        -6.9065    1.3833   67.1374 C.2     1  ZINC000530457945   -0.0500
     16 C16        -6.8490    0.3038   66.3085 C.2     1  ZINC000530457945   -0.0900
     17 C17        -7.6840    0.2592   65.1779 C.2     1  ZINC000530457945    0.3000
     18 N18        -7.8514   -0.6418   64.2148 N.2     1  ZINC000530457945   -0.5500
     19 C19        -9.1752   -2.2326   59.6620 C.3     1  ZINC000530457945   -0.1200
     20 C20       -10.1539   -3.1401   58.8757 C.3     1  ZINC000530457945    0.0400
     21 N21       -11.4804   -2.8829   59.4840 N.3     1  ZINC000530457945   -0.4900
     22 C22       -12.4949   -2.9704   58.5279 C.ar    1  ZINC000530457945    0.1000
     23 C23       -13.7699   -3.3763   58.9009 C.ar    1  ZINC000530457945   -0.1600
     24 C24       -14.7707   -3.4612   57.9530 C.ar    1  ZINC000530457945   -0.1100
     25 C25       -14.5045   -3.1432   56.6338 C.ar    1  ZINC000530457945   -0.1300
     26 C26       -13.2364   -2.7388   56.2591 C.ar    1  ZINC000530457945   -0.1100
     27 C27       -12.2324   -2.6461   57.2029 C.ar    1  ZINC000530457945   -0.1000
     28 H28       -13.4728   -1.1188   59.4846 H       1  ZINC000530457945    0.0700
     29 H29       -12.5310    0.3142   59.9620 H       1  ZINC000530457945    0.0600
     30 H30       -12.2168   -0.4772   58.3988 H       1  ZINC000530457945    0.0600
     31 H31        -9.2205   -1.8732   62.2217 H       1  ZINC000530457945    0.4300
     32 H32        -9.2727    3.1777   65.5447 H       1  ZINC000530457945    0.1800
     33 H33        -6.2714    1.4331   68.0095 H       1  ZINC000530457945    0.1600
     34 H34        -6.1688   -0.5087   66.5171 H       1  ZINC000530457945    0.1700
     35 H35        -8.2943   -1.9984   59.0644 H       1  ZINC000530457945    0.0900
     36 H36        -8.8919   -2.6921   60.6090 H       1  ZINC000530457945    0.0900
     37 H37       -10.1596   -2.8673   57.8204 H       1  ZINC000530457945    0.0700
     38 H38        -9.8796   -4.1880   58.9962 H       1  ZINC000530457945    0.0900
     39 H39       -13.9783   -3.6254   59.9308 H       1  ZINC000530457945    0.1200
     40 H40       -15.7623   -3.7767   58.2423 H       1  ZINC000530457945    0.1200
     41 H41       -15.2888   -3.2111   55.8943 H       1  ZINC000530457945    0.1200
     42 H42       -13.0318   -2.4911   55.2279 H       1  ZINC000530457945    0.1300
     43 H43       -11.2423   -2.3300   56.9096 H       1  ZINC000530457945    0.1300
@<TRIPOS>BOND
     1     1     2    1
     2     1    28    1
     3     1    29    1
     4     1    30    1
     5     2     3    1
     6     2    21    1
     7     2     4    1
     8     4     5    1
     9     4     6    1
    10     4    19    1
    11     6     7    2
    12     6     8   am
    13     8     9    1
    14     8    31    1
    15     9    18    1
    16     9    10    2
    17    10    11    1
    18    11    17    1
    19    11    12    1
    20    12    13    2
    21    12    32    1
    22    13    14    1
    23    13    15    1
    24    15    16    2
    25    15    33    1
    26    16    17    1
    27    16    34    1
    28    17    18    2
    29    19    20    1
    30    19    35    1
    31    19    36    1
    32    20    21    1
    33    20    37    1
    34    20    38    1
    35    21    22    1
    36    22    27   ar
    37    22    23   ar
    38    23    24   ar
    39    23    39    1
    40    24    25   ar
    41    24    40    1
    42    25    26   ar
    43    25    41    1
    44    26    27   ar
    45    26    42    1
    46    27    43    1
@<TRIPOS>SUBSTRUCTURE
     1 ZINC000530457945        1 TEMP              0 ****  ****    0 ROOT


##########                                Name:    ZINC000744839011
##########                DOCK_Rotatable_Bonds:                  10
##########                         Heavy_Atoms:                  24
##########                    Molecular_Weight:              378.83
##########                DOCK_Rotatable_Bonds:                  10
##########                       Formal_Charge:           0.0300002
##########                     HBond_Acceptors:                   9
##########                        HBond_Donors:                   0
##########                         Heavy_Atoms:                  24
##########                          Grid_Score:          -34.689362
##########                     Grid_vdw_energy:          -31.409033
##########                      Grid_es_energy:           -3.280329
##########           Internal_energy_repulsive:           10.017613

@<TRIPOS>MOLECULE
ZINC000744839011
 43 43 1 0 0
SMALL
USER_CHARGES


@<TRIPOS>ATOM
      1 C1         -5.9074   -3.9362   56.6545 C.3     1  ZINC000744839011    0.0400
      2 O2         -7.1377   -4.3889   57.2788 O.3     1  ZINC000744839011   -0.3600
      3 C3         -8.2877   -3.8554   56.8221 C.2     1  ZINC000744839011    0.5100
      4 O4         -8.5331   -3.8686   55.6321 O.2     1  ZINC000744839011   -0.5000
      5 C5         -9.2484   -3.2554   57.7665 C.ar    1  ZINC000744839011   -0.1600
      6 C6         -8.7892   -2.4837   58.8374 C.ar    1  ZINC000744839011   -0.0100
      7 C7         -9.6894   -1.9245   59.7171 C.ar    1  ZINC000744839011   -0.2100
      8 C8        -11.0529   -2.1264   59.5415 C.ar    1  ZINC000744839011    0.1800
      9 O9        -11.9364   -1.5735   60.4108 O.3     1  ZINC000744839011   -0.2900
     10 C10       -12.4198   -0.2652   60.1001 C.3     1  ZINC000744839011    0.0500
     11 C11       -13.5225    0.1192   61.0888 C.3     1  ZINC000744839011    0.0600
     12 O12       -13.3431    1.4997   61.5014 O.3     1  ZINC000744839011   -0.3400
     13 C13       -13.1272    1.7224   62.8073 C.2     1  ZINC000744839011    0.5000
     14 O14       -13.9636    2.2894   63.4697 O.2     1  ZINC000744839011   -0.4900
     15 C15       -11.8418    1.2653   63.4473 C.3     1  ZINC000744839011   -0.6400
     16 S16       -10.5213    2.4483   63.0637 S.o2    1  ZINC000744839011    2.4400
     17 O17       -10.3066    2.4477   61.6590 O.2     1  ZINC000744839011   -0.9100
     18 O18       -10.8074    3.6751   63.7213 O.2     1  ZINC000744839011   -0.9100
     19 C19        -9.0868    1.6826   63.8679 C.3     1  ZINC000744839011   -0.5700
     20 C20        -9.3597    1.5372   65.3664 C.3     1  ZINC000744839011   -0.1500
     21 C21        -8.8374    0.3016   63.2585 C.3     1  ZINC000744839011   -0.1500
     22 C22       -11.5148   -2.8935   58.4766 C.ar    1  ZINC000744839011   -0.0800
     23 Cl23      -13.2197   -3.1417   58.2622 Cl      1  ZINC000744839011   -0.0400
     24 C24       -10.6213   -3.4522   57.5895 C.ar    1  ZINC000744839011   -0.0100
     25 H25        -5.9343   -4.1665   55.5894 H       1  ZINC000744839011    0.0700
     26 H26        -5.8053   -2.8596   56.7911 H       1  ZINC000744839011    0.0700
     27 H27        -5.0589   -4.4428   57.1144 H       1  ZINC000744839011    0.1100
     28 H28        -7.7297   -2.3264   58.9753 H       1  ZINC000744839011    0.1500
     29 H29        -9.3349   -1.3284   60.5450 H       1  ZINC000744839011    0.1500
     30 H30       -11.6014    0.4512   60.1722 H       1  ZINC000744839011    0.0900
     31 H31       -12.8215   -0.2573   59.0869 H       1  ZINC000744839011    0.1000
     32 H32       -14.4952    0.0065   60.6100 H       1  ZINC000744839011    0.1100
     33 H33       -13.4700   -0.5308   61.9623 H       1  ZINC000744839011    0.0900
     34 H34       -11.9745    1.2066   64.5276 H       1  ZINC000744839011    0.1700
     35 H35       -11.5727    0.2824   63.0604 H       1  ZINC000744839011    0.1700
     36 H36        -8.2082    2.3101   63.7178 H       1  ZINC000744839011    0.1400
     37 H37        -8.4978    1.0771   65.8496 H       1  ZINC000744839011    0.0900
     38 H38        -9.5374    2.5211   65.8005 H       1  ZINC000744839011    0.0700
     39 H39       -10.2382    0.9097   65.5165 H       1  ZINC000744839011    0.0800
     40 H40        -8.6430    0.4052   62.1910 H       1  ZINC000744839011    0.0800
     41 H41        -7.9755   -0.1585   63.7418 H       1  ZINC000744839011    0.0900
     42 H42        -9.7159   -0.3258   63.4086 H       1  ZINC000744839011    0.0800
     43 H43       -10.9802   -4.0476   56.7631 H       1  ZINC000744839011    0.1600
@<TRIPOS>BOND
     1     1     2    1
     2     1    25    1
     3     1    26    1
     4     1    27    1
     5     2     3    1
     6     3     4    2
     7     3     5    1
     8     5    24   ar
     9     5     6   ar
    10     6     7   ar
    11     6    28    1
    12     7     8   ar
    13     7    29    1
    14     8     9    1
    15     8    22   ar
    16     9    10    1
    17    10    11    1
    18    10    30    1
    19    10    31    1
    20    11    12    1
    21    11    32    1
    22    11    33    1
    23    12    13    1
    24    13    14    2
    25    13    15    1
    26    15    16    1
    27    15    34    1
    28    15    35    1
    29    16    17    2
    30    16    18    2
    31    16    19    1
    32    19    20    1
    33    19    21    1
    34    19    36    1
    35    20    37    1
    36    20    38    1
    37    20    39    1
    38    21    40    1
    39    21    41    1
    40    21    42    1
    41    22    23    1
    42    22    24   ar
    43    24    43    1
@<TRIPOS>SUBSTRUCTURE
     1 ZINC000744839011        1 TEMP              0 ****  ****    0 ROOT


##########                                Name:    ZINC001342153661
##########                DOCK_Rotatable_Bonds:                   8
##########                         Heavy_Atoms:                  29
##########                    Molecular_Weight:             395.548
##########                DOCK_Rotatable_Bonds:                   8
##########                       Formal_Charge:          -0.0400005
##########                     HBond_Acceptors:                   6
##########                        HBond_Donors:                   1
##########                         Heavy_Atoms:                  29
##########                          Grid_Score:          -34.615360
##########                     Grid_vdw_energy:          -31.283564
##########                      Grid_es_energy:           -3.331797
##########           Internal_energy_repulsive:           19.333420

@<TRIPOS>MOLECULE
ZINC001342153661
 62 65 1 0 0
SMALL
USER_CHARGES


@<TRIPOS>ATOM
      1 C1        -10.5554    3.9064   61.4053 C.2     1  ZINC001342153661   -0.1400
      2 C2         -9.9124    2.8388   61.0016 C.2     1  ZINC001342153661   -0.1600
      3 C3         -9.4450    2.7361   59.5726 C.3     1  ZINC001342153661   -0.1200
      4 C4         -9.6403    1.7135   61.9662 C.3     1  ZINC001342153661    0.1500
      5 N5        -10.7989    1.5317   62.8440 N.pl3   1  ZINC001342153661   -0.4700
      6 C6        -10.8342    1.6707   64.2039 C.2     1  ZINC001342153661    0.1800
      7 C7         -9.6768    2.0438   65.0939 C.3     1  ZINC001342153661   -0.0600
      8 C8         -8.9296    0.7773   65.5168 C.3     1  ZINC001342153661    0.1600
      9 H9         -9.5261    0.2303   66.2469 H       1  ZINC001342153661    0.1000
     10 O10        -8.7044   -0.0476   64.3718 O.3     1  ZINC001342153661   -0.5400
     11 C11        -7.6067    1.1560   66.1312 C.ar    1  ZINC001342153661   -0.1700
     12 C12        -7.4650    2.3583   66.8065 C.ar    1  ZINC001342153661   -0.0600
     13 C13        -6.2293    2.6648   67.3562 C.ar    1  ZINC001342153661   -0.1700
     14 C14        -5.1877    1.7681   67.2135 C.ar    1  ZINC001342153661    0.1000
     15 N15        -5.3590    0.6330   66.5642 N.ar    1  ZINC001342153661   -0.4800
     16 C16        -6.5208    0.3063   66.0334 C.ar    1  ZINC001342153661    0.1100
     17 N17       -12.0543    1.4214   64.5874 N.2     1  ZINC001342153661   -0.2700
     18 N18       -12.7865    1.1367   63.5703 N.2     1  ZINC001342153661   -0.3200
     19 C19       -12.0682    1.1943   62.4737 C.2     1  ZINC001342153661    0.3600
     20 N20       -12.5125    0.9503   61.1840 N.3     1  ZINC001342153661   -0.4500
     21 C21       -13.9367    1.2808   61.0466 C.3     1  ZINC001342153661    0.0500
     22 C22       -14.3558    1.1383   59.5816 C.3     1  ZINC001342153661   -0.1200
     23 C23       -14.0994   -0.2989   59.1199 C.3     1  ZINC001342153661   -0.1200
     24 C24       -12.6185   -0.6339   59.3186 C.3     1  ZINC001342153661   -0.0800
     25 H25       -12.0099    0.0266   58.7011 H       1  ZINC001342153661    0.0800
     26 C26       -12.3652   -2.0878   58.9148 C.3     1  ZINC001342153661   -0.0800
     27 C27       -12.5729   -2.2712   57.3910 C.3     1  ZINC001342153661   -0.1200
     28 C28       -11.7259   -3.5300   57.0795 C.3     1  ZINC001342153661   -0.1300
     29 C29       -10.4793   -3.3784   57.9757 C.3     1  ZINC001342153661   -0.1300
     30 C30       -10.8859   -2.4613   59.1426 C.3     1  ZINC001342153661   -0.1200
     31 C31       -12.2498   -0.4401   60.7912 C.3     1  ZINC001342153661    0.0800
     32 H32       -10.7504    4.7130   60.7141 H       1  ZINC001342153661    0.1000
     33 H33       -10.8942    3.9782   62.4283 H       1  ZINC001342153661    0.1100
     34 H34        -8.4761    3.2249   59.4712 H       1  ZINC001342153661    0.0700
     35 H35        -9.3531    1.6861   59.2951 H       1  ZINC001342153661    0.0600
     36 H36       -10.1679    3.2229   58.9180 H       1  ZINC001342153661    0.0700
     37 H37        -9.4582    0.7940   61.4098 H       1  ZINC001342153661    0.1000
     38 H38        -8.7634    1.9540   62.5672 H       1  ZINC001342153661    0.1000
     39 H39        -8.9982    2.7017   64.5509 H       1  ZINC001342153661    0.1100
     40 H40       -10.0503    2.5580   65.9794 H       1  ZINC001342153661    0.1000
     41 H41        -8.1369    0.3567   63.7013 H       1  ZINC001342153661    0.3800
     42 H42        -8.2971    3.0403   66.9020 H       1  ZINC001342153661    0.1300
     43 H43        -6.0828    3.5929   67.8888 H       1  ZINC001342153661    0.1400
     44 H44        -4.2222    1.9996   67.6384 H       1  ZINC001342153661    0.1600
     45 H45        -6.6230   -0.6321   65.5087 H       1  ZINC001342153661    0.1500
     46 H46       -14.5281    0.6019   61.6611 H       1  ZINC001342153661    0.0500
     47 H47       -14.1047    2.3068   61.3743 H       1  ZINC001342153661    0.0700
     48 H48       -15.4166    1.3686   59.4825 H       1  ZINC001342153661    0.0800
     49 H49       -13.7745    1.8268   58.9682 H       1  ZINC001342153661    0.0700
     50 H50       -14.7099   -0.9846   59.7072 H       1  ZINC001342153661    0.0600
     51 H51       -14.3559   -0.3937   58.0647 H       1  ZINC001342153661    0.0700
     52 H52       -13.0183   -2.7575   59.4742 H       1  ZINC001342153661    0.0800
     53 H53       -13.6242   -2.4470   57.1628 H       1  ZINC001342153661    0.0700
     54 H54       -12.1968   -1.4073   56.8430 H       1  ZINC001342153661    0.0700
     55 H55       -12.2758   -4.4342   57.3407 H       1  ZINC001342153661    0.0600
     56 H56       -11.4398   -3.5468   56.0279 H       1  ZINC001342153661    0.0600
     57 H57       -10.1722   -4.3526   58.3560 H       1  ZINC001342153661    0.0600
     58 H58        -9.6658   -2.9244   57.4099 H       1  ZINC001342153661    0.0600
     59 H59       -10.2695   -1.5623   59.1431 H       1  ZINC001342153661    0.0600
     60 H60       -10.7758   -2.9905   60.0891 H       1  ZINC001342153661    0.0600
     61 H61       -11.1927   -0.6641   60.9334 H       1  ZINC001342153661    0.0900
     62 H62       -12.8491   -1.1108   61.4069 H       1  ZINC001342153661    0.0500
@<TRIPOS>BOND
     1     1     2    2
     2     1    32    1
     3     1    33    1
     4     2     3    1
     5     2     4    1
     6     3    34    1
     7     3    35    1
     8     3    36    1
     9     4     5    1
    10     4    37    1
    11     4    38    1
    12     5    19    1
    13     5     6    1
    14     6     7    1
    15     6    17    2
    16     7     8    1
    17     7    39    1
    18     7    40    1
    19     8     9    1
    20     8    10    1
    21     8    11    1
    22    10    41    1
    23    11    16   ar
    24    11    12   ar
    25    12    13   ar
    26    12    42    1
    27    13    14   ar
    28    13    43    1
    29    14    15   ar
    30    14    44    1
    31    15    16   ar
    32    16    45    1
    33    17    18    1
    34    18    19    2
    35    19    20    1
    36    20    31    1
    37    20    21    1
    38    21    22    1
    39    21    46    1
    40    21    47    1
    41    22    23    1
    42    22    48    1
    43    22    49    1
    44    23    24    1
    45    23    50    1
    46    23    51    1
    47    24    25    1
    48    24    26    1
    49    24    31    1
    50    26    30    1
    51    26    27    1
    52    26    52    1
    53    27    28    1
    54    27    53    1
    55    27    54    1
    56    28    29    1
    57    28    55    1
    58    28    56    1
    59    29    30    1
    60    29    57    1
    61    29    58    1
    62    30    59    1
    63    30    60    1
    64    31    61    1
    65    31    62    1
@<TRIPOS>SUBSTRUCTURE
     1 ZINC001342153661        1 TEMP              0 ****  ****    0 ROOT


##########                                Name:    ZINC000517001504
##########                DOCK_Rotatable_Bonds:                   5
##########                         Heavy_Atoms:                  29
##########                    Molecular_Weight:             403.401
##########                DOCK_Rotatable_Bonds:                   5
##########                       Formal_Charge:          -0.0200002
##########                     HBond_Acceptors:                   7
##########                        HBond_Donors:                   0
##########                         Heavy_Atoms:                  29
##########                          Grid_Score:          -34.595100
##########                     Grid_vdw_energy:          -32.393215
##########                      Grid_es_energy:           -2.201885
##########           Internal_energy_repulsive:           33.426575

@<TRIPOS>MOLECULE
ZINC000517001504
 49 52 1 0 0
SMALL
USER_CHARGES


@<TRIPOS>ATOM
      1 O1        -14.4864    0.7438   60.8301 O.2     1  ZINC000517001504   -0.5200
      2 C2        -13.3927    0.4540   60.3932 C.2     1  ZINC000517001504    0.5400
      3 N3        -13.2466   -0.6317   59.6080 N.am    1  ZINC000517001504   -0.6100
      4 C4        -14.3982   -1.4840   59.2721 C.3     1  ZINC000517001504    0.0600
      5 C5        -14.0239   -2.9408   59.5676 C.3     1  ZINC000517001504    0.0500
      6 O6        -12.7914   -3.2522   58.9136 O.3     1  ZINC000517001504   -0.3700
      7 C7        -11.6769   -2.4799   59.3669 C.3     1  ZINC000517001504    0.1200
      8 H8        -11.5542   -2.6138   60.4416 H       1  ZINC000517001504    0.0800
      9 C9        -10.4276   -2.9343   58.6571 C.ar    1  ZINC000517001504   -0.0600
     10 C10       -10.5078   -3.4439   57.3745 C.ar    1  ZINC000517001504   -0.0900
     11 C11        -9.3619   -3.8607   56.7235 C.ar    1  ZINC000517001504   -0.0700
     12 C12        -8.1356   -3.7677   57.3549 C.ar    1  ZINC000517001504   -0.1800
     13 C13        -6.8863   -4.2226   56.6453 C.3     1  ZINC000517001504    0.5100
     14 F14        -6.9436   -5.6054   56.4409 F       1  ZINC000517001504   -0.1800
     15 F15        -6.7881   -3.5722   55.4107 F       1  ZINC000517001504   -0.1800
     16 F16        -5.7675   -3.9126   57.4261 F       1  ZINC000517001504   -0.1800
     17 C17        -8.0552   -3.2570   58.6369 C.ar    1  ZINC000517001504   -0.0700
     18 C18        -9.2008   -2.8365   59.2864 C.ar    1  ZINC000517001504   -0.1000
     19 C19       -11.9321   -0.9962   59.0564 C.3     1  ZINC000517001504    0.0900
     20 C20       -12.1982    1.3115   60.7232 C.3     1  ZINC000517001504   -0.0600
     21 C21       -11.5607    1.9231   59.5023 C.ar    1  ZINC000517001504   -0.0700
     22 C22       -10.3096    2.5040   59.5936 C.ar    1  ZINC000517001504   -0.1200
     23 C23        -9.7248    3.0650   58.4737 C.ar    1  ZINC000517001504   -0.1100
     24 C24       -10.3907    3.0447   57.2625 C.ar    1  ZINC000517001504   -0.1100
     25 C25       -11.6414    2.4629   57.1712 C.ar    1  ZINC000517001504   -0.1100
     26 C26       -12.2244    1.8981   58.2900 C.ar    1  ZINC000517001504   -0.1000
     27 C27       -12.4554    2.3181   61.8577 C.3     1  ZINC000517001504   -0.1600
     28 C28       -11.9923    1.2329   62.8094 C.2     1  ZINC000517001504    0.3600
     29 O29       -12.1792    0.9635   63.9715 O.2     1  ZINC000517001504   -0.4100
     30 C30       -11.1934    0.6324   61.6697 C.3     1  ZINC000517001504   -0.1900
     31 H31       -15.2574   -1.1956   59.8776 H       1  ZINC000517001504    0.1000
     32 H32       -14.6401   -1.3743   58.2149 H       1  ZINC000517001504    0.0800
     33 H33       -13.9097   -3.0764   60.6431 H       1  ZINC000517001504    0.0600
     34 H34       -14.8089   -3.6006   59.1981 H       1  ZINC000517001504    0.1100
     35 H35       -11.4658   -3.5165   56.8813 H       1  ZINC000517001504    0.1400
     36 H36        -9.4246   -4.2594   55.7218 H       1  ZINC000517001504    0.1400
     37 H37        -7.0971   -3.1839   59.1299 H       1  ZINC000517001504    0.1400
     38 H38        -9.1379   -2.4374   60.2881 H       1  ZINC000517001504    0.1400
     39 H39       -11.9244   -0.8403   57.9777 H       1  ZINC000517001504    0.0800
     40 H40       -11.1583   -0.3856   59.5216 H       1  ZINC000517001504    0.1100
     41 H41        -9.7893    2.5200   60.5398 H       1  ZINC000517001504    0.1300
     42 H42        -8.7477    3.5196   58.5451 H       1  ZINC000517001504    0.1300
     43 H43        -9.9342    3.4836   56.3877 H       1  ZINC000517001504    0.1300
     44 H44       -12.1619    2.4472   56.2249 H       1  ZINC000517001504    0.1300
     45 H45       -13.2015    1.4436   58.2186 H       1  ZINC000517001504    0.1200
     46 H46       -11.7968    3.1862   61.8301 H       1  ZINC000517001504    0.1300
     47 H47       -13.5056    2.5850   61.9761 H       1  ZINC000517001504    0.1100
     48 H48       -11.2286   -0.4566   61.6370 H       1  ZINC000517001504    0.1000
     49 H49       -10.1807    1.0275   61.5894 H       1  ZINC000517001504    0.1400
@<TRIPOS>BOND
     1     1     2    2
     2     2     3   am
     3     2    20    1
     4     3    19    1
     5     3     4    1
     6     4     5    1
     7     4    31    1
     8     4    32    1
     9     5     6    1
    10     5    33    1
    11     5    34    1
    12     6     7    1
    13     7     8    1
    14     7     9    1
    15     7    19    1
    16     9    18   ar
    17     9    10   ar
    18    10    11   ar
    19    10    35    1
    20    11    12   ar
    21    11    36    1
    22    12    13    1
    23    12    17   ar
    24    13    14    1
    25    13    15    1
    26    13    16    1
    27    17    18   ar
    28    17    37    1
    29    18    38    1
    30    19    39    1
    31    19    40    1
    32    20    30    1
    33    20    21    1
    34    20    27    1
    35    21    26   ar
    36    21    22   ar
    37    22    23   ar
    38    22    41    1
    39    23    24   ar
    40    23    42    1
    41    24    25   ar
    42    24    43    1
    43    25    26   ar
    44    25    44    1
    45    26    45    1
    46    27    28    1
    47    27    46    1
    48    27    47    1
    49    28    29    2
    50    28    30    1
    51    30    48    1
    52    30    49    1
@<TRIPOS>SUBSTRUCTURE
     1 ZINC000517001504        1 TEMP              0 ****  ****    0 ROOT


##########                                Name:    ZINC001456607258
##########                DOCK_Rotatable_Bonds:                   9
##########                         Heavy_Atoms:                  25
##########                    Molecular_Weight:             339.437
##########                DOCK_Rotatable_Bonds:                   9
##########                       Formal_Charge:          -0.0200009
##########                     HBond_Acceptors:                   5
##########                        HBond_Donors:                   2
##########                         Heavy_Atoms:                  25
##########                          Grid_Score:          -34.560078
##########                     Grid_vdw_energy:          -30.412874
##########                      Grid_es_energy:           -4.147203
##########           Internal_energy_repulsive:           13.413939

@<TRIPOS>MOLECULE
ZINC001456607258
 50 52 1 0 0
SMALL
USER_CHARGES


@<TRIPOS>ATOM
      1 C1        -13.1922    3.0356   64.4744 C.3     1  ZINC001456607258   -0.1600
      2 C2        -11.9792    3.0263   63.5418 C.3     1  ZINC001456607258   -0.1100
      3 C3        -11.5470    1.5819   63.2817 C.3     1  ZINC001456607258   -0.1000
      4 H4        -11.6366    1.0045   64.2018 H       1  ZINC001456607258    0.0900
      5 C5        -10.0926    1.5623   62.8069 C.3     1  ZINC001456607258   -0.0700
      6 C6         -9.1860    1.2814   63.9775 C.ar    1  ZINC001456607258   -0.0800
      7 C7         -8.8575   -0.0220   64.3001 C.ar    1  ZINC001456607258   -0.1200
      8 C8         -8.0258   -0.2797   65.3738 C.ar    1  ZINC001456607258   -0.1200
      9 C9         -7.5224    0.7661   66.1247 C.ar    1  ZINC001456607258   -0.1200
     10 C10        -7.8501    2.0695   65.8015 C.ar    1  ZINC001456607258   -0.1200
     11 C11        -8.6782    2.3274   64.7252 C.ar    1  ZINC001456607258   -0.1200
     12 C12       -12.4299    0.9767   62.2208 C.2     1  ZINC001456607258    0.5200
     13 O13       -13.1687    0.0562   62.4993 O.2     1  ZINC001456607258   -0.5300
     14 N14       -12.3984    1.4585   60.9624 N.am    1  ZINC001456607258   -0.7300
     15 C15       -13.2566    0.8702   59.9311 C.3     1  ZINC001456607258    0.1300
     16 C16       -12.3894    0.1570   58.8919 C.3     1  ZINC001456607258   -0.1400
     17 C17       -11.2683   -0.7019   59.5044 C.3     1  ZINC001456607258    0.1100
     18 N18       -11.6224   -1.7106   58.4869 N.am    1  ZINC001456607258   -0.6500
     19 C19       -10.9615   -2.7220   57.8895 C.2     1  ZINC001456607258    0.6100
     20 O20       -11.5245   -3.4100   57.0595 O.2     1  ZINC001456607258   -0.5400
     21 C21        -9.5577   -2.9939   58.2418 C.2     1  ZINC001456607258   -0.2300
     22 C22        -8.9028   -2.5966   59.3749 C.2     1  ZINC001456607258    0.0400
     23 N23        -7.6355   -3.0474   59.3135 N.pl3   1  ZINC001456607258   -0.5500
     24 C24        -7.4351   -3.7402   58.1551 C.2     1  ZINC001456607258   -0.0200
     25 C25        -8.5811   -3.7509   57.4514 C.2     1  ZINC001456607258   -0.1400
     26 C26       -12.9906   -1.1669   58.3862 C.3     1  ZINC001456607258    0.1100
     27 H27       -13.4438    4.0643   64.7329 H       1  ZINC001456607258    0.0600
     28 H28       -14.0400    2.5694   63.9724 H       1  ZINC001456607258    0.0600
     29 H29       -12.9568    2.4801   65.3821 H       1  ZINC001456607258    0.0600
     30 H30       -12.2434    3.5022   62.5974 H       1  ZINC001456607258    0.0800
     31 H31       -11.1589    3.5729   64.0071 H       1  ZINC001456607258    0.0700
     32 H32        -9.9665    0.7838   62.0546 H       1  ZINC001456607258    0.0800
     33 H33        -9.8385    2.5301   62.3746 H       1  ZINC001456607258    0.0900
     34 H34        -9.2508   -0.8391   63.7135 H       1  ZINC001456607258    0.1200
     35 H35        -7.7698   -1.2981   65.6263 H       1  ZINC001456607258    0.1200
     36 H36        -6.8733    0.5647   66.9640 H       1  ZINC001456607258    0.1200
     37 H37        -7.4570    2.8865   66.3884 H       1  ZINC001456607258    0.1200
     38 H38        -8.9343    3.3458   64.4726 H       1  ZINC001456607258    0.1200
     39 H39       -11.8075    2.1948   60.7398 H       1  ZINC001456607258    0.4000
     40 H40       -13.9370    0.1531   60.3904 H       1  ZINC001456607258    0.0700
     41 H41       -13.8325    1.6577   59.4451 H       1  ZINC001456607258    0.0800
     42 H42       -12.0516    0.8186   58.0941 H       1  ZINC001456607258    0.1100
     43 H43       -10.2715   -0.2798   59.3762 H       1  ZINC001456607258    0.0800
     44 H44       -11.4682   -1.0208   60.5273 H       1  ZINC001456607258    0.0900
     45 H45        -9.3295   -2.0191   60.1817 H       1  ZINC001456607258    0.1700
     46 H46        -6.9611   -2.9004   59.9951 H       1  ZINC001456607258    0.4200
     47 H47        -6.5091   -4.2078   57.8549 H       1  ZINC001456607258    0.1700
     48 H48        -8.7472   -4.2176   56.4917 H       1  ZINC001456607258    0.1500
     49 H49       -13.6966   -1.6224   59.0808 H       1  ZINC001456607258    0.0900
     50 H50       -13.3691   -1.1159   57.3653 H       1  ZINC001456607258    0.0900
@<TRIPOS>BOND
     1     1     2    1
     2     1    27    1
     3     1    28    1
     4     1    29    1
     5     2     3    1
     6     2    30    1
     7     2    31    1
     8     3     4    1
     9     3     5    1
    10     3    12    1
    11     5     6    1
    12     5    32    1
    13     5    33    1
    14     6    11   ar
    15     6     7   ar
    16     7     8   ar
    17     7    34    1
    18     8     9   ar
    19     8    35    1
    20     9    10   ar
    21     9    36    1
    22    10    11   ar
    23    10    37    1
    24    11    38    1
    25    12    13    2
    26    12    14   am
    27    14    15    1
    28    14    39    1
    29    15    16    1
    30    15    40    1
    31    15    41    1
    32    16    26    1
    33    16    17    1
    34    16    42    1
    35    17    18    1
    36    17    43    1
    37    17    44    1
    38    18    19   am
    39    18    26    1
    40    19    20    2
    41    19    21    1
    42    21    25    1
    43    21    22    2
    44    22    23    1
    45    22    45    1
    46    23    24    1
    47    23    46    1
    48    24    25    2
    49    24    47    1
    50    25    48    1
    51    26    49    1
    52    26    50    1
@<TRIPOS>SUBSTRUCTURE
     1 ZINC001456607258        1 TEMP              0 ****  ****    0 ROOT


##########                                Name:    ZINC000444811358
##########                DOCK_Rotatable_Bonds:                  11
##########                         Heavy_Atoms:                  27
##########                    Molecular_Weight:             374.455
##########                DOCK_Rotatable_Bonds:                  11
##########                       Formal_Charge:          0.00999966
##########                     HBond_Acceptors:                   6
##########                        HBond_Donors:                   2
##########                         Heavy_Atoms:                  27
##########                          Grid_Score:          -34.558807
##########                     Grid_vdw_energy:          -31.893145
##########                      Grid_es_energy:           -2.665664
##########           Internal_energy_repulsive:           26.155922

@<TRIPOS>MOLECULE
ZINC000444811358
 54 55 1 0 0
SMALL
USER_CHARGES


@<TRIPOS>ATOM
      1 C1         -9.7822    3.8952   65.6483 C.3     1  ZINC000444811358   -0.1100
      2 C2        -10.3776    3.2499   64.4235 C.ar    1  ZINC000444811358   -0.1300
      3 C3         -9.7499    2.1647   63.8414 C.ar    1  ZINC000444811358   -0.0700
      4 C4        -10.2926    1.5709   62.7182 C.ar    1  ZINC000444811358   -0.1500
      5 C5        -11.4706    2.0644   62.1731 C.ar    1  ZINC000444811358    0.1700
      6 N6        -12.0218    1.4640   61.0359 N.am    1  ZINC000444811358   -0.6800
      7 C7        -12.9661    0.5113   61.1674 C.2     1  ZINC000444811358    0.5200
      8 O8        -13.3379    0.1744   62.2716 O.2     1  ZINC000444811358   -0.5000
      9 C9        -13.5598   -0.1353   59.9425 C.3     1  ZINC000444811358    0.0200
     10 N10       -12.4797   -0.6036   59.0638 N.3     1  ZINC000444811358   -0.5000
     11 C11       -11.9523   -1.8962   59.5208 C.3     1  ZINC000444811358    0.0200
     12 C12       -10.4370   -1.9312   59.3120 C.3     1  ZINC000444811358    0.1100
     13 H13       -10.2144   -1.8361   58.2493 H       1  ZINC000444811358    0.1200
     14 O14        -9.8329   -0.8495   60.0239 O.3     1  ZINC000444811358   -0.5400
     15 C15        -9.8809   -3.2582   59.8328 C.3     1  ZINC000444811358    0.0300
     16 O16        -8.4580   -3.2628   59.7011 O.3     1  ZINC000444811358   -0.3000
     17 C17        -7.9541   -3.4961   58.4608 C.ar    1  ZINC000444811358    0.1300
     18 C18        -6.5842   -3.4477   58.2470 C.ar    1  ZINC000444811358   -0.2100
     19 C19        -6.0743   -3.6857   56.9853 C.ar    1  ZINC000444811358   -0.0800
     20 C20        -6.9281   -3.9717   55.9361 C.ar    1  ZINC000444811358   -0.1600
     21 C21        -8.2938   -4.0201   56.1464 C.ar    1  ZINC000444811358   -0.0800
     22 C22        -8.8082   -3.7889   57.4075 C.ar    1  ZINC000444811358   -0.1500
     23 C23       -12.9333   -0.6836   57.6689 C.3     1  ZINC000444811358    0.0700
     24 C24       -14.3189   -1.3309   57.6194 C.3     1  ZINC000444811358   -0.1400
     25 C25       -13.0068    0.7245   57.0749 C.3     1  ZINC000444811358   -0.1900
     26 C26       -12.1007    3.1544   62.7587 C.ar    1  ZINC000444811358   -0.1500
     27 C27       -11.5559    3.7419   63.8863 C.ar    1  ZINC000444811358    0.1200
     28 F28       -12.1674    4.8024   64.4575 F       1  ZINC000444811358   -0.1300
     29 H29       -10.1780    3.4127   66.5419 H       1  ZINC000444811358    0.0700
     30 H30        -8.6980    3.7857   65.6261 H       1  ZINC000444811358    0.0700
     31 H31       -10.0402    4.9541   65.6628 H       1  ZINC000444811358    0.0700
     32 H32        -8.8337    1.7806   64.2651 H       1  ZINC000444811358    0.1400
     33 H33        -9.8007    0.7235   62.2642 H       1  ZINC000444811358    0.1300
     34 H34       -11.7245    1.7334   60.1528 H       1  ZINC000444811358    0.4100
     35 H35       -14.1774   -0.9821   60.2419 H       1  ZINC000444811358    0.1300
     36 H36       -14.1730    0.5911   59.4092 H       1  ZINC000444811358    0.0700
     37 H37       -12.1763   -2.0262   60.5796 H       1  ZINC000444811358    0.0500
     38 H38       -12.4164   -2.7004   58.9498 H       1  ZINC000444811358    0.1000
     39 H39        -9.9150   -0.9167   60.9852 H       1  ZINC000444811358    0.3700
     40 H40       -10.1491   -3.3775   60.8825 H       1  ZINC000444811358    0.0600
     41 H41       -10.3021   -4.0805   59.2545 H       1  ZINC000444811358    0.0700
     42 H42        -5.9169   -3.2237   59.0662 H       1  ZINC000444811358    0.1300
     43 H43        -5.0080   -3.6482   56.8184 H       1  ZINC000444811358    0.1200
     44 H44        -6.5276   -4.1572   54.9504 H       1  ZINC000444811358    0.1200
     45 H45        -8.9587   -4.2434   55.3251 H       1  ZINC000444811358    0.1300
     46 H46        -9.8750   -3.8268   57.5714 H       1  ZINC000444811358    0.1300
     47 H47       -12.2305   -1.2850   57.0922 H       1  ZINC000444811358    0.0900
     48 H48       -15.0476   -0.6650   58.0816 H       1  ZINC000444811358    0.0500
     49 H49       -14.5986   -1.5116   56.5816 H       1  ZINC000444811358    0.0600
     50 H50       -14.2973   -2.2772   58.1599 H       1  ZINC000444811358    0.0700
     51 H51       -12.0198    1.1856   57.1101 H       1  ZINC000444811358    0.0500
     52 H52       -13.3433    0.6650   56.0399 H       1  ZINC000444811358    0.0700
     53 H53       -13.7095    1.3259   57.6515 H       1  ZINC000444811358    0.0600
     54 H54       -13.0167    3.5405   62.3368 H       1  ZINC000444811358    0.1500
@<TRIPOS>BOND
     1     1     2    1
     2     1    29    1
     3     1    30    1
     4     1    31    1
     5     2    27   ar
     6     2     3   ar
     7     3     4   ar
     8     3    32    1
     9     4     5   ar
    10     4    33    1
    11     5     6    1
    12     5    26   ar
    13     6     7   am
    14     6    34    1
    15     7     8    2
    16     7     9    1
    17     9    10    1
    18     9    35    1
    19     9    36    1
    20    10    11    1
    21    10    23    1
    22    11    12    1
    23    11    37    1
    24    11    38    1
    25    12    13    1
    26    12    14    1
    27    12    15    1
    28    14    39    1
    29    15    16    1
    30    15    40    1
    31    15    41    1
    32    16    17    1
    33    17    22   ar
    34    17    18   ar
    35    18    19   ar
    36    18    42    1
    37    19    20   ar
    38    19    43    1
    39    20    21   ar
    40    20    44    1
    41    21    22   ar
    42    21    45    1
    43    22    46    1
    44    23    24    1
    45    23    25    1
    46    23    47    1
    47    24    48    1
    48    24    49    1
    49    24    50    1
    50    25    51    1
    51    25    52    1
    52    25    53    1
    53    26    27   ar
    54    26    54    1
    55    27    28    1
@<TRIPOS>SUBSTRUCTURE
     1 ZINC000444811358        1 TEMP              0 ****  ****    0 ROOT


##########                                Name:    ZINC000011620562
##########                DOCK_Rotatable_Bonds:                   9
##########                         Heavy_Atoms:                  29
##########                    Molecular_Weight:             417.448
##########                DOCK_Rotatable_Bonds:                   9
##########                       Formal_Charge:           0.0299999
##########                     HBond_Acceptors:                  12
##########                        HBond_Donors:                   1
##########                         Heavy_Atoms:                  29
##########                          Grid_Score:          -34.556133
##########                     Grid_vdw_energy:          -31.444809
##########                      Grid_es_energy:           -3.111324
##########           Internal_energy_repulsive:           10.837848

@<TRIPOS>MOLECULE
ZINC000011620562
 48 50 1 0 0
SMALL
USER_CHARGES


@<TRIPOS>ATOM
      1 C1        -10.7357   -1.1869   51.9174 C.3     1  ZINC000011620562    0.0400
      2 O2        -10.9736    0.1868   52.3231 O.3     1  ZINC000011620562   -0.3500
      3 C3        -12.2524    0.5624   52.4827 C.2     1  ZINC000011620562    0.4600
      4 O4        -12.5114    1.6856   52.8448 O.2     1  ZINC000011620562   -0.5000
      5 C5        -13.3649   -0.4168   52.2100 C.3     1  ZINC000011620562    0.1300
      6 N6        -13.5719   -1.2614   53.3889 N.am    1  ZINC000011620562   -0.7200
      7 C7        -14.2874   -0.7978   54.4329 C.2     1  ZINC000011620562    0.5400
      8 O8        -14.7610    0.3181   54.3955 O.2     1  ZINC000011620562   -0.5200
      9 C9        -14.4987   -1.6659   55.6464 C.3     1  ZINC000011620562   -0.1600
     10 S10       -13.5886   -0.9736   57.0493 S.3     1  ZINC000011620562    0.1400
     11 C11       -14.0652   -2.1063   58.3121 C.2     1  ZINC000011620562    0.2100
     12 N12       -15.0047   -3.0237   58.2261 N.2     1  ZINC000011620562   -0.3400
     13 N13       -15.0950   -3.6794   59.3266 N.2     1  ZINC000011620562   -0.0300
     14 N14       -14.2374   -3.2399   60.1827 N.2     1  ZINC000011620562   -0.0800
     15 N15       -13.5293   -2.2011   59.5535 N.pl3   1  ZINC000011620562   -0.2600
     16 C16       -12.4910   -1.4215   60.0986 C.2     1  ZINC000011620562   -0.1300
     17 C17       -11.1720   -1.7179   60.0643 C.2     1  ZINC000011620562    0.2500
     18 C18       -10.5594   -2.9425   59.4350 C.3     1  ZINC000011620562   -0.1100
     19 N19       -10.4883   -0.7159   60.6986 N.pl3   1  ZINC000011620562   -0.3700
     20 C20        -9.0363   -0.6497   60.8818 C.3     1  ZINC000011620562    0.0900
     21 N21       -11.4160    0.2357   61.1420 N.am    1  ZINC000011620562   -0.3600
     22 C22       -11.1206    1.4132   61.8363 C.ar    1  ZINC000011620562    0.1400
     23 C23       -11.3806    1.5021   63.1978 C.ar    1  ZINC000011620562   -0.1300
     24 C24       -11.0872    2.6661   63.8806 C.ar    1  ZINC000011620562   -0.1000
     25 C25       -10.5353    3.7424   63.2103 C.ar    1  ZINC000011620562   -0.1100
     26 C26       -10.2756    3.6573   61.8547 C.ar    1  ZINC000011620562   -0.1000
     27 C27       -10.5612    2.4941   61.1671 C.ar    1  ZINC000011620562   -0.1000
     28 C28       -12.6440   -0.1836   60.7751 C.2     1  ZINC000011620562    0.5500
     29 O29       -13.6948    0.3922   60.9917 O.2     1  ZINC000011620562   -0.5000
     30 H30       -11.2171   -1.3705   50.9567 H       1  ZINC000011620562    0.0700
     31 H31        -9.6632   -1.3579   51.8250 H       1  ZINC000011620562    0.1100
     32 H32       -11.1484   -1.8634   52.6658 H       1  ZINC000011620562    0.0700
     33 H33       -14.2824    0.1282   51.9879 H       1  ZINC000011620562    0.1200
     34 H34       -13.0982   -1.0417   51.3576 H       1  ZINC000011620562    0.1200
     35 H35       -13.1941   -2.1543   53.4182 H       1  ZINC000011620562    0.4200
     36 H36       -15.5615   -1.7035   55.8856 H       1  ZINC000011620562    0.1400
     37 H37       -14.1370   -2.6733   55.4399 H       1  ZINC000011620562    0.1400
     38 H38       -11.3462   -3.5629   59.0061 H       1  ZINC000011620562    0.1000
     39 H39        -9.8668   -2.6396   58.6497 H       1  ZINC000011620562    0.1000
     40 H40       -10.0218   -3.5107   60.1942 H       1  ZINC000011620562    0.1000
     41 H41        -8.5763   -1.5452   60.4639 H       1  ZINC000011620562    0.1100
     42 H42        -8.6456    0.2311   60.3723 H       1  ZINC000011620562    0.0900
     43 H43        -8.8068   -0.5859   61.9455 H       1  ZINC000011620562    0.0900
     44 H44       -11.8120    0.6620   63.7218 H       1  ZINC000011620562    0.1300
     45 H45       -11.2895    2.7361   64.9393 H       1  ZINC000011620562    0.1300
     46 H46       -10.3068    4.6515   63.7467 H       1  ZINC000011620562    0.1300
     47 H47        -9.8451    4.4998   61.3341 H       1  ZINC000011620562    0.1400
     48 H48       -10.3579    2.4281   60.1085 H       1  ZINC000011620562    0.1400
@<TRIPOS>BOND
     1     1     2    1
     2     1    30    1
     3     1    31    1
     4     1    32    1
     5     2     3    1
     6     3     4    2
     7     3     5    1
     8     5     6    1
     9     5    33    1
    10     5    34    1
    11     6     7   am
    12     6    35    1
    13     7     8    2
    14     7     9    1
    15     9    10    1
    16     9    36    1
    17     9    37    1
    18    10    11    1
    19    11    15    1
    20    11    12    2
    21    12    13    1
    22    13    14    2
    23    14    15    1
    24    15    16    1
    25    16    28    1
    26    16    17    2
    27    17    18    1
    28    17    19    1
    29    18    38    1
    30    18    39    1
    31    18    40    1
    32    19    20    1
    33    19    21    1
    34    20    41    1
    35    20    42    1
    36    20    43    1
    37    21    22    1
    38    21    28   am
    39    22    27   ar
    40    22    23   ar
    41    23    24   ar
    42    23    44    1
    43    24    25   ar
    44    24    45    1
    45    25    26   ar
    46    25    46    1
    47    26    27   ar
    48    26    47    1
    49    27    48    1
    50    28    29    2
@<TRIPOS>SUBSTRUCTURE
     1 ZINC000011620562        1 TEMP              0 ****  ****    0 ROOT


##########                                Name:    ZINC001039825450
##########                DOCK_Rotatable_Bonds:                   8
##########                         Heavy_Atoms:                  24
##########                    Molecular_Weight:             337.339
##########                DOCK_Rotatable_Bonds:                   8
##########                       Formal_Charge:           0.0100001
##########                     HBond_Acceptors:                  11
##########                        HBond_Donors:                   4
##########                         Heavy_Atoms:                  24
##########                          Grid_Score:          -34.515167
##########                     Grid_vdw_energy:          -31.767256
##########                      Grid_es_energy:           -2.747913
##########           Internal_energy_repulsive:            6.474260

@<TRIPOS>MOLECULE
ZINC001039825450
 43 45 1 0 0
SMALL
USER_CHARGES


@<TRIPOS>ATOM
      1 O1        -10.8921    3.2189   63.2257 O.2     1  ZINC001039825450   -0.5100
      2 C2        -11.1592    2.0919   63.5857 C.2     1  ZINC001039825450    0.5000
      3 C3        -10.7107    1.6074   64.9404 C.3     1  ZINC001039825450    0.1300
      4 N4         -9.5164    0.7726   64.7897 N.pl3   1  ZINC001039825450   -0.1500
      5 N5         -9.0647    0.3395   63.6662 N.2     1  ZINC001039825450   -0.2800
      6 C6         -7.9855   -0.3749   63.8929 C.2     1  ZINC001039825450   -0.0200
      7 C7         -7.7956   -0.3527   65.2764 C.2     1  ZINC001039825450   -0.0200
      8 N8         -8.7736    0.3775   65.7624 N.2     1  ZINC001039825450   -0.2800
      9 N9        -11.8618    1.2746   62.7764 N.am    1  ZINC001039825450   -0.7300
     10 C10       -12.2977    1.7456   61.4595 C.3     1  ZINC001039825450    0.1000
     11 C11       -12.9515    0.5921   60.6960 C.3     1  ZINC001039825450    0.1100
     12 O12       -14.1486    0.1686   61.3516 O.3     1  ZINC001039825450   -0.5400
     13 C13       -13.2402    0.9998   59.2271 C.3     1  ZINC001039825450   -0.1600
     14 C14       -13.2208   -0.3750   58.5132 C.3     1  ZINC001039825450    0.1000
     15 N15       -12.1552   -1.1366   59.1899 N.am    1  ZINC001039825450   -0.6100
     16 C16       -11.4665   -2.1658   58.6583 C.2     1  ZINC001039825450    0.5200
     17 O17       -11.7051   -2.5358   57.5282 O.2     1  ZINC001039825450   -0.5100
     18 C18       -10.3999   -2.8571   59.4681 C.3     1  ZINC001039825450    0.1100
     19 H19       -10.7913   -3.1526   60.4415 H       1  ZINC001039825450    0.1200
     20 C20        -9.1699   -1.9438   59.6342 C.3     1  ZINC001039825450    0.1100
     21 N21        -8.0841   -2.6935   58.9850 N.am    1  ZINC001039825450   -0.7400
     22 C22        -8.5687   -3.8493   58.5124 C.2     1  ZINC001039825450    0.7100
     23 O23        -7.8835   -4.6657   57.9273 O.2     1  ZINC001039825450   -0.5800
     24 N24        -9.8792   -4.0266   58.7445 N.am    1  ZINC001039825450   -0.7200
     25 C25       -11.9678   -0.5868   60.5407 C.3     1  ZINC001039825450    0.1200
     26 H26       -10.4780    2.4635   65.5737 H       1  ZINC001039825450    0.1400
     27 H27       -11.5076    1.0221   65.3991 H       1  ZINC001039825450    0.1400
     28 H28        -7.3715   -0.8766   63.1596 H       1  ZINC001039825450    0.2000
     29 H29        -7.0044   -0.8337   65.8324 H       1  ZINC001039825450    0.2000
     30 H30       -12.0787    0.3746   63.0659 H       1  ZINC001039825450    0.4000
     31 H31       -13.0182    2.5541   61.5829 H       1  ZINC001039825450    0.0900
     32 H32       -11.4358    2.1092   60.9000 H       1  ZINC001039825450    0.0900
     33 H33       -14.8308   -0.1605   60.7504 H       1  ZINC001039825450    0.3800
     34 H34       -14.2182    1.4726   59.1379 H       1  ZINC001039825450    0.0900
     35 H35       -12.4562    1.6514   58.8413 H       1  ZINC001039825450    0.0900
     36 H36       -14.1805   -0.8777   58.6322 H       1  ZINC001039825450    0.0800
     37 H37       -12.9852   -0.2502   57.4563 H       1  ZINC001039825450    0.0800
     38 H38        -9.3305   -0.9903   59.1311 H       1  ZINC001039825450    0.0900
     39 H39        -8.9490   -1.7878   60.6902 H       1  ZINC001039825450    0.1000
     40 H40        -7.1632   -2.3980   58.9109 H       1  ZINC001039825450    0.4400
     41 H41       -10.3979   -4.8010   58.4757 H       1  ZINC001039825450    0.4400
     42 H42       -10.9436   -0.2329   60.6580 H       1  ZINC001039825450    0.0900
     43 H43       -12.1855   -1.3520   61.2858 H       1  ZINC001039825450    0.0900
@<TRIPOS>BOND
     1     1     2    2
     2     2     3    1
     3     2     9   am
     4     3     4    1
     5     3    26    1
     6     3    27    1
     7     4     8    1
     8     4     5    1
     9     5     6    2
    10     6     7    1
    11     6    28    1
    12     7     8    2
    13     7    29    1
    14     9    10    1
    15     9    30    1
    16    10    11    1
    17    10    31    1
    18    10    32    1
    19    11    25    1
    20    11    12    1
    21    11    13    1
    22    12    33    1
    23    13    14    1
    24    13    34    1
    25    13    35    1
    26    14    15    1
    27    14    36    1
    28    14    37    1
    29    15    16   am
    30    15    25    1
    31    16    17    2
    32    16    18    1
    33    18    19    1
    34    18    24    1
    35    18    20    1
    36    20    21    1
    37    20    38    1
    38    20    39    1
    39    21    22   am
    40    21    40    1
    41    22    23    2
    42    22    24   am
    43    24    41    1
    44    25    42    1
    45    25    43    1
@<TRIPOS>SUBSTRUCTURE
     1 ZINC001039825450        1 TEMP              0 ****  ****    0 ROOT


##########                                Name:    ZINC000420486261
##########                DOCK_Rotatable_Bonds:                   7
##########                         Heavy_Atoms:                  26
##########                    Molecular_Weight:             353.378
##########                DOCK_Rotatable_Bonds:                   7
##########                       Formal_Charge:        -2.98023e-08
##########                     HBond_Acceptors:                   7
##########                        HBond_Donors:                   0
##########                         Heavy_Atoms:                  26
##########                          Grid_Score:          -34.219463
##########                     Grid_vdw_energy:          -32.848732
##########                      Grid_es_energy:           -1.370732
##########           Internal_energy_repulsive:           15.682457

@<TRIPOS>MOLECULE
ZINC000420486261
 45 47 1 0 0
SMALL
USER_CHARGES


@<TRIPOS>ATOM
      1 C1         -6.3488    0.7123   66.3968 C.3     1  ZINC000420486261    0.0400
      2 O2         -7.5275    0.6751   65.5495 O.3     1  ZINC000420486261   -0.3500
      3 C3         -8.4319    1.6588   65.7167 C.2     1  ZINC000420486261    0.5100
      4 O4         -8.2411    2.5245   66.5465 O.2     1  ZINC000420486261   -0.4900
      5 C5         -9.6589    1.6847   64.8886 C.ar    1  ZINC000420486261   -0.0700
      6 C6        -10.7319    2.5184   65.2208 C.ar    1  ZINC000420486261   -0.0900
      7 C7        -11.8621    2.5154   64.4220 C.ar    1  ZINC000420486261    0.1100
      8 N8        -11.9406    1.7426   63.3605 N.ar    1  ZINC000420486261   -0.4200
      9 C9        -10.9491    0.9349   63.0049 C.ar    1  ZINC000420486261    0.1900
     10 C10       -11.0913    0.0872   61.8001 C.2     1  ZINC000420486261    0.2200
     11 N11       -10.1439   -0.6305   61.2286 N.2     1  ZINC000420486261   -0.4300
     12 C12       -10.7327   -1.2304   60.1726 C.2     1  ZINC000420486261    0.2200
     13 C13       -10.0804   -2.1486   59.2075 C.ar    1  ZINC000420486261   -0.0600
     14 C14        -8.7261   -2.4487   59.3332 C.ar    1  ZINC000420486261   -0.0300
     15 C15        -8.1237   -3.3038   58.4327 C.ar    1  ZINC000420486261   -0.1600
     16 C16        -8.8603   -3.8648   57.4044 C.ar    1  ZINC000420486261   -0.0600
     17 C17       -10.2044   -3.5740   57.2702 C.ar    1  ZINC000420486261   -0.2200
     18 C18       -10.8237   -2.7215   58.1707 C.ar    1  ZINC000420486261    0.1700
     19 O19       -12.1446   -2.4350   58.0401 O.3     1  ZINC000420486261   -0.2900
     20 C20       -12.8933   -3.2315   57.1198 C.3     1  ZINC000420486261    0.0600
     21 C21       -14.3880   -2.9747   57.3217 C.3     1  ZINC000420486261   -0.0900
     22 C22       -14.7788   -3.3380   58.7556 C.3     1  ZINC000420486261   -0.1500
     23 C23       -14.6900   -1.4960   57.0698 C.3     1  ZINC000420486261   -0.1500
     24 N24       -11.9858   -0.8523   60.1577 N.2     1  ZINC000420486261   -0.3400
     25 O25       -12.2101   -0.1026   61.0841 O.3     1  ZINC000420486261    0.1000
     26 C26        -9.7736    0.8812   63.7511 C.ar    1  ZINC000420486261   -0.0700
     27 H27        -5.7043   -0.1343   66.1602 H       1  ZINC000420486261    0.1100
     28 H28        -5.8061    1.6417   66.2237 H       1  ZINC000420486261    0.0700
     29 H29        -6.6513    0.6576   67.4426 H       1  ZINC000420486261    0.0700
     30 H30       -10.6791    3.1568   66.0904 H       1  ZINC000420486261    0.1600
     31 H31       -12.6931    3.1574   64.6745 H       1  ZINC000420486261    0.1800
     32 H32        -8.1479   -2.0126   60.1344 H       1  ZINC000420486261    0.1400
     33 H33        -7.0734   -3.5355   58.5308 H       1  ZINC000420486261    0.1300
     34 H34        -8.3823   -4.5327   56.7031 H       1  ZINC000420486261    0.1300
     35 H35       -10.7742   -4.0148   56.4656 H       1  ZINC000420486261    0.1400
     36 H36       -12.6138   -2.9676   56.0999 H       1  ZINC000420486261    0.0600
     37 H37       -12.6790   -4.2859   57.2940 H       1  ZINC000420486261    0.0600
     38 H38       -14.9593   -3.5863   56.6233 H       1  ZINC000420486261    0.0800
     39 H39       -14.2075   -2.7264   59.4539 H       1  ZINC000420486261    0.0600
     40 H40       -15.8436   -3.1551   58.8994 H       1  ZINC000420486261    0.0700
     41 H41       -14.5637   -4.3914   58.9350 H       1  ZINC000420486261    0.0600
     42 H42       -14.1187   -0.8845   57.7682 H       1  ZINC000420486261    0.0500
     43 H43       -14.4116   -1.2372   56.0483 H       1  ZINC000420486261    0.0600
     44 H44       -15.7549   -1.3131   57.2137 H       1  ZINC000420486261    0.0600
     45 H45        -8.9680    0.2237   63.4599 H       1  ZINC000420486261    0.1600
@<TRIPOS>BOND
     1     1     2    1
     2     1    27    1
     3     1    28    1
     4     1    29    1
     5     2     3    1
     6     3     4    2
     7     3     5    1
     8     5    26   ar
     9     5     6   ar
    10     6     7   ar
    11     6    30    1
    12     7     8   ar
    13     7    31    1
    14     8     9   ar
    15     9    10    1
    16     9    26   ar
    17    10    25    1
    18    10    11    2
    19    11    12    1
    20    12    13    1
    21    12    24    2
    22    13    18   ar
    23    13    14   ar
    24    14    15   ar
    25    14    32    1
    26    15    16   ar
    27    15    33    1
    28    16    17   ar
    29    16    34    1
    30    17    18   ar
    31    17    35    1
    32    18    19    1
    33    19    20    1
    34    20    21    1
    35    20    36    1
    36    20    37    1
    37    21    22    1
    38    21    23    1
    39    21    38    1
    40    22    39    1
    41    22    40    1
    42    22    41    1
    43    23    42    1
    44    23    43    1
    45    23    44    1
    46    24    25    1
    47    26    45    1
@<TRIPOS>SUBSTRUCTURE
     1 ZINC000420486261        1 TEMP              0 ****  ****    0 ROOT


##########                                Name:    ZINC001347442583
##########                DOCK_Rotatable_Bonds:                   9
##########                         Heavy_Atoms:                  27
##########                    Molecular_Weight:             370.492
##########                DOCK_Rotatable_Bonds:                   9
##########                       Formal_Charge:          -0.0400009
##########                     HBond_Acceptors:                   5
##########                        HBond_Donors:                   1
##########                         Heavy_Atoms:                  27
##########                          Grid_Score:          -34.182873
##########                     Grid_vdw_energy:          -33.331673
##########                      Grid_es_energy:           -0.851200
##########           Internal_energy_repulsive:           11.024125

@<TRIPOS>MOLECULE
ZINC001347442583
 57 60 1 0 0
SMALL
USER_CHARGES


@<TRIPOS>ATOM
      1 O1        -13.3590   -0.4165   60.3376 O.2     1  ZINC001347442583   -0.5400
      2 C2        -12.4031    0.3003   60.5460 C.2     1  ZINC001347442583    0.5400
      3 C3        -11.0061   -0.2475   60.4073 C.3     1  ZINC001347442583   -0.1400
      4 C4        -11.0706   -1.6802   59.8742 C.3     1  ZINC001347442583   -0.1000
      5 C5         -9.6578   -2.1654   59.5436 C.3     1  ZINC001347442583   -0.1100
      6 C6         -9.7345   -3.2965   58.5160 C.3     1  ZINC001347442583   -0.0800
      7 C7         -8.3716   -3.5210   57.9135 C.ar    1  ZINC001347442583   -0.0800
      8 C8         -7.2455   -3.4732   58.7139 C.ar    1  ZINC001347442583   -0.1200
      9 C9         -5.9954   -3.6792   58.1611 C.ar    1  ZINC001347442583   -0.1200
     10 C10        -5.8713   -3.9333   56.8080 C.ar    1  ZINC001347442583   -0.1300
     11 C11        -6.9973   -3.9821   56.0078 C.ar    1  ZINC001347442583   -0.1200
     12 C12        -8.2479   -3.7804   56.5613 C.ar    1  ZINC001347442583   -0.1200
     13 N13       -12.5902    1.5883   60.8962 N.am    1  ZINC001347442583   -0.6300
     14 C14       -13.8521    2.3774   61.1012 C.3     1  ZINC001347442583    0.1200
     15 H15       -14.7835    1.8349   60.9392 H       1  ZINC001347442583    0.1200
     16 C16       -13.6051    3.5881   60.1515 C.3     1  ZINC001347442583   -0.1300
     17 C17       -12.0715    3.7922   60.2199 C.3     1  ZINC001347442583   -0.1300
     18 C18       -11.6010    2.6753   61.2078 C.3     1  ZINC001347442583    0.1200
     19 H19       -10.5499    2.3958   61.1357 H       1  ZINC001347442583    0.1200
     20 C20       -12.0748    3.1522   62.6138 C.3     1  ZINC001347442583    0.1300
     21 H21       -11.8234    4.2015   62.7683 H       1  ZINC001347442583    0.1100
     22 N22       -11.4851    2.3215   63.6666 N.am    1  ZINC001347442583   -0.7200
     23 C23       -10.1579    2.3668   63.8966 C.2     1  ZINC001347442583    0.5300
     24 O24        -9.4520    3.0964   63.2330 O.2     1  ZINC001347442583   -0.5300
     25 C25        -9.5510    1.5108   64.9783 C.3     1  ZINC001347442583   -0.1500
     26 H26       -10.3269    0.9903   65.5396 H       1  ZINC001347442583    0.1100
     27 C27        -8.5320    0.5034   64.3794 C.3     1  ZINC001347442583   -0.1400
     28 C28        -7.5775    0.3000   65.5830 C.3     1  ZINC001347442583    0.0500
     29 O29        -7.4939    1.5863   66.2168 O.3     1  ZINC001347442583   -0.3800
     30 C30        -8.6673    2.3583   65.9186 C.3     1  ZINC001347442583    0.0700
     31 C31       -13.6331    2.9211   62.5452 C.3     1  ZINC001347442583   -0.1400
     32 H32       -10.4396    0.3733   59.7131 H       1  ZINC001347442583    0.0900
     33 H33       -10.5160   -0.2438   61.3809 H       1  ZINC001347442583    0.0900
     34 H34       -11.5102   -2.3299   60.6310 H       1  ZINC001347442583    0.0700
     35 H35       -11.6836   -1.7053   58.9733 H       1  ZINC001347442583    0.0700
     36 H36        -9.0769   -1.3398   59.1325 H       1  ZINC001347442583    0.0600
     37 H37        -9.1775   -2.5311   60.4512 H       1  ZINC001347442583    0.0600
     38 H38       -10.0702   -4.2104   59.0060 H       1  ZINC001347442583    0.0700
     39 H39       -10.4391   -3.0258   57.7297 H       1  ZINC001347442583    0.0700
     40 H40        -7.3425   -3.2746   59.7710 H       1  ZINC001347442583    0.1200
     41 H41        -5.1156   -3.6410   58.7863 H       1  ZINC001347442583    0.1200
     42 H42        -4.8945   -4.0935   56.3760 H       1  ZINC001347442583    0.1200
     43 H43        -6.9004   -4.1804   54.9505 H       1  ZINC001347442583    0.1200
     44 H44        -9.1278   -3.8185   55.9361 H       1  ZINC001347442583    0.1200
     45 H45       -13.9156    3.3481   59.1346 H       1  ZINC001347442583    0.0700
     46 H46       -14.1268    4.4736   60.5145 H       1  ZINC001347442583    0.0800
     47 H47       -11.6215    3.6535   59.2368 H       1  ZINC001347442583    0.0800
     48 H48       -11.8328    4.7788   60.6167 H       1  ZINC001347442583    0.0800
     49 H49       -12.0499    1.7389   64.1981 H       1  ZINC001347442583    0.4000
     50 H50        -9.0199   -0.4313   64.1028 H       1  ZINC001347442583    0.0900
     51 H51        -8.0052    0.9361   63.5290 H       1  ZINC001347442583    0.0900
     52 H52        -7.9903   -0.4358   66.2731 H       1  ZINC001347442583    0.0700
     53 H53        -6.5935   -0.0156   65.2363 H       1  ZINC001347442583    0.0900
     54 H54        -8.3834    3.2848   65.4195 H       1  ZINC001347442583    0.0700
     55 H55        -9.2060    2.5827   66.8392 H       1  ZINC001347442583    0.0800
     56 H56       -14.1667    3.8641   62.6641 H       1  ZINC001347442583    0.0900
     57 H57       -13.9483    2.2023   63.3015 H       1  ZINC001347442583    0.0800
@<TRIPOS>BOND
     1     1     2    2
     2     2     3    1
     3     2    13   am
     4     3     4    1
     5     3    32    1
     6     3    33    1
     7     4     5    1
     8     4    34    1
     9     4    35    1
    10     5     6    1
    11     5    36    1
    12     5    37    1
    13     6     7    1
    14     6    38    1
    15     6    39    1
    16     7    12   ar
    17     7     8   ar
    18     8     9   ar
    19     8    40    1
    20     9    10   ar
    21     9    41    1
    22    10    11   ar
    23    10    42    1
    24    11    12   ar
    25    11    43    1
    26    12    44    1
    27    13    18    1
    28    13    14    1
    29    14    15    1
    30    14    31    1
    31    14    16    1
    32    16    17    1
    33    16    45    1
    34    16    46    1
    35    17    18    1
    36    17    47    1
    37    17    48    1
    38    18    19    1
    39    18    20    1
    40    20    21    1
    41    20    22    1
    42    20    31    1
    43    22    23   am
    44    22    49    1
    45    23    24    2
    46    23    25    1
    47    25    26    1
    48    25    30    1
    49    25    27    1
    50    27    28    1
    51    27    50    1
    52    27    51    1
    53    28    29    1
    54    28    52    1
    55    28    53    1
    56    29    30    1
    57    30    54    1
    58    30    55    1
    59    31    56    1
    60    31    57    1
@<TRIPOS>SUBSTRUCTURE
     1 ZINC001347442583        1 TEMP              0 ****  ****    0 ROOT


##########                                Name:    ZINC001105194920
##########                DOCK_Rotatable_Bonds:                   8
##########                         Heavy_Atoms:                  25
##########                    Molecular_Weight:             346.392
##########                DOCK_Rotatable_Bonds:                   8
##########                       Formal_Charge:          -0.0100007
##########                     HBond_Acceptors:                  10
##########                        HBond_Donors:                   3
##########                         Heavy_Atoms:                  25
##########                          Grid_Score:          -34.150421
##########                     Grid_vdw_energy:          -33.976173
##########                      Grid_es_energy:           -0.174247
##########           Internal_energy_repulsive:           17.742332

@<TRIPOS>MOLECULE
ZINC001105194920
 47 49 1 0 0
SMALL
USER_CHARGES


@<TRIPOS>ATOM
      1 C1        -10.0967    4.7068   67.2360 C.3     1  ZINC001105194920    0.0300
      2 O2         -8.9990    4.2042   66.4714 O.3     1  ZINC001105194920   -0.3900
      3 C3         -8.6135    2.8716   66.8143 C.3     1  ZINC001105194920    0.0700
      4 C4         -7.4367    2.4395   65.9372 C.3     1  ZINC001105194920    0.0900
      5 H5         -7.7332    2.4736   64.8888 H       1  ZINC001105194920    0.0900
      6 C6         -6.2565    3.3864   66.1645 C.3     1  ZINC001105194920   -0.1800
      7 N7         -7.0403    1.0696   66.2896 N.3     1  ZINC001105194920   -0.6800
      8 C8         -8.1466    0.1284   66.0698 C.3     1  ZINC001105194920    0.1400
      9 C9         -8.4568    0.0530   64.5971 C.2     1  ZINC001105194920   -0.0200
     10 C10        -9.2173    0.9166   63.8845 C.2     1  ZINC001105194920   -0.0200
     11 N11        -9.2178    0.4568   62.6118 N.pl3   1  ZINC001105194920   -0.2800
     12 C12        -9.9122    1.0711   61.4775 C.3     1  ZINC001105194920    0.1000
     13 C13        -9.5844    0.4179   60.1226 C.3     1  ZINC001105194920    0.1100
     14 N14       -10.7392   -0.4636   60.3818 N.am    1  ZINC001105194920   -0.6300
     15 C15       -11.0971   -1.6967   59.9717 C.2     1  ZINC001105194920    0.6200
     16 O16       -12.1381   -2.1886   60.3620 O.2     1  ZINC001105194920   -0.5400
     17 C17       -10.2244   -2.4503   59.0481 C.ar    1  ZINC001105194920   -0.0600
     18 N18        -8.9451   -2.6502   59.3512 N.ar    1  ZINC001105194920   -0.3700
     19 C19        -8.1695   -3.3226   58.5252 C.ar    1  ZINC001105194920   -0.0200
     20 C20        -8.6801   -3.8255   57.3371 C.ar    1  ZINC001105194920    0.1500
     21 N21        -9.9483   -3.6346   57.0224 N.ar    1  ZINC001105194920   -0.5100
     22 C22       -10.7433   -2.9641   57.8482 C.ar    1  ZINC001105194920    0.4200
     23 N23       -12.0719   -2.7623   57.5228 N.pl3   1  ZINC001105194920   -0.8100
     24 C24       -11.3448    0.5471   61.2703 C.3     1  ZINC001105194920    0.1100
     25 N25        -8.5029   -0.6127   62.5691 N.2     1  ZINC001105194920   -0.0800
     26 N26        -8.0301   -0.8773   63.7358 N.2     1  ZINC001105194920   -0.2600
     27 H27        -9.8314    4.7107   68.2932 H       1  ZINC001105194920    0.0400
     28 H28       -10.3278    5.7226   66.9156 H       1  ZINC001105194920    0.0800
     29 H29       -10.9681    4.0702   67.0824 H       1  ZINC001105194920    0.0400
     30 H30        -8.3170    2.8375   67.8626 H       1  ZINC001105194920    0.0600
     31 H31        -9.4543    2.1972   66.6523 H       1  ZINC001105194920    0.0500
     32 H32        -5.9601    3.3522   67.2129 H       1  ZINC001105194920    0.0700
     33 H33        -5.4181    3.0785   65.5396 H       1  ZINC001105194920    0.0500
     34 H34        -6.5507    4.4028   65.9029 H       1  ZINC001105194920    0.0600
     35 H35        -6.2183    0.7878   65.7767 H       1  ZINC001105194920    0.3500
     36 H36        -7.8608   -0.8592   66.4320 H       1  ZINC001105194920    0.0900
     37 H37        -9.0287    0.4722   66.6098 H       1  ZINC001105194920    0.0500
     38 H38        -9.7226    1.7955   64.2568 H       1  ZINC001105194920    0.1800
     39 H39        -9.8375    2.1586   61.4719 H       1  ZINC001105194920    0.1500
     40 H40        -9.7218    1.0827   59.2698 H       1  ZINC001105194920    0.1200
     41 H41        -8.6278   -0.1044   60.1066 H       1  ZINC001105194920    0.1000
     42 H42        -7.1310   -3.4830   58.7742 H       1  ZINC001105194920    0.1800
     43 H43        -8.0369   -4.3756   56.6661 H       1  ZINC001105194920    0.1800
     44 H44       -12.4449   -3.1757   56.7286 H       1  ZINC001105194920    0.4000
     45 H45       -12.6310   -2.2073   58.0888 H       1  ZINC001105194920    0.4300
     46 H46       -11.7938    0.1279   62.1709 H       1  ZINC001105194920    0.1100
     47 H47       -11.9994    1.2498   60.7547 H       1  ZINC001105194920    0.1200
@<TRIPOS>BOND
     1     1     2    1
     2     1    27    1
     3     1    28    1
     4     1    29    1
     5     2     3    1
     6     3     4    1
     7     3    30    1
     8     3    31    1
     9     4     5    1
    10     4     6    1
    11     4     7    1
    12     6    32    1
    13     6    33    1
    14     6    34    1
    15     7     8    1
    16     7    35    1
    17     8     9    1
    18     8    36    1
    19     8    37    1
    20     9    26    1
    21     9    10    2
    22    10    11    1
    23    10    38    1
    24    11    12    1
    25    11    25    1
    26    12    24    1
    27    12    13    1
    28    12    39    1
    29    13    14    1
    30    13    40    1
    31    13    41    1
    32    14    15   am
    33    14    24    1
    34    15    16    2
    35    15    17    1
    36    17    22   ar
    37    17    18   ar
    38    18    19   ar
    39    19    20   ar
    40    19    42    1
    41    20    21   ar
    42    20    43    1
    43    21    22   ar
    44    22    23    1
    45    23    44    1
    46    23    45    1
    47    24    46    1
    48    24    47    1
    49    25    26    2
@<TRIPOS>SUBSTRUCTURE
     1 ZINC001105194920        1 TEMP              0 ****  ****    0 ROOT


##########                                Name:    ZINC000506156755
##########                DOCK_Rotatable_Bonds:                   7
##########                         Heavy_Atoms:                  30
##########                    Molecular_Weight:             400.434
##########                DOCK_Rotatable_Bonds:                   7
##########                       Formal_Charge:          -0.0200001
##########                     HBond_Acceptors:                   6
##########                        HBond_Donors:                   1
##########                         Heavy_Atoms:                  30
##########                          Grid_Score:          -34.130272
##########                     Grid_vdw_energy:          -33.232559
##########                      Grid_es_energy:           -0.897714
##########           Internal_energy_repulsive:           17.452585

@<TRIPOS>MOLECULE
ZINC000506156755
 50 53 1 0 0
SMALL
USER_CHARGES


@<TRIPOS>ATOM
      1 C1        -13.2621    1.2110   60.7670 C.3     1  ZINC000506156755   -0.1600
      2 C2        -12.8148    0.6628   59.4105 C.3     1  ZINC000506156755    0.1900
      3 H3        -13.6211    0.7815   58.6868 H       1  ZINC000506156755    0.1000
      4 N4        -12.4829   -0.7580   59.5433 N.am    1  ZINC000506156755   -0.7200
      5 C5        -12.5538   -1.5697   58.4698 C.2     1  ZINC000506156755    0.5000
      6 O6        -12.8938   -1.1244   57.3942 O.2     1  ZINC000506156755   -0.5200
      7 C7        -12.2107   -3.0308   58.6059 C.3     1  ZINC000506156755    0.0900
      8 N8        -10.8015   -3.2356   58.2619 N.am    1  ZINC000506156755   -0.5600
      9 C9         -9.7876   -3.1862   59.1447 C.2     1  ZINC000506156755    0.5800
     10 O10        -9.8937   -2.9680   60.3347 O.2     1  ZINC000506156755   -0.4600
     11 C11        -8.5227   -3.4426   58.4241 C.ar    1  ZINC000506156755   -0.1400
     12 C12        -7.1917   -3.5137   58.8011 C.ar    1  ZINC000506156755   -0.0400
     13 C13        -6.2205   -3.7799   57.8480 C.ar    1  ZINC000506156755   -0.0900
     14 C14        -6.5715   -3.9746   56.5257 C.ar    1  ZINC000506156755   -0.0900
     15 C15        -7.8997   -3.9063   56.1337 C.ar    1  ZINC000506156755   -0.0400
     16 C16        -8.8808   -3.6410   57.0750 C.ar    1  ZINC000506156755   -0.1400
     17 C17       -10.3517   -3.5035   57.0227 C.2     1  ZINC000506156755    0.5800
     18 O18       -11.0389   -3.6123   56.0273 O.2     1  ZINC000506156755   -0.4600
     19 C19       -11.6005    1.4203   58.9383 C.ar    1  ZINC000506156755   -0.1200
     20 C20       -11.6489    2.1381   57.7593 C.ar    1  ZINC000506156755   -0.0800
     21 C21       -10.5353    2.8338   57.3256 C.ar    1  ZINC000506156755   -0.1400
     22 C22        -9.3708    2.8129   58.0706 C.ar    1  ZINC000506156755   -0.0800
     23 C23        -9.3170    2.0965   59.2506 C.ar    1  ZINC000506156755   -0.1900
     24 C24       -10.4345    1.4019   59.6906 C.ar    1  ZINC000506156755    0.1300
     25 O25       -10.3844    0.6968   60.8512 O.3     1  ZINC000506156755   -0.2500
     26 C26        -9.8644    1.3087   61.9474 C.ar    1  ZINC000506156755    0.0800
     27 C27        -9.1456    0.5729   62.8786 C.ar    1  ZINC000506156755   -0.1400
     28 C28        -8.6180    1.1974   63.9922 C.ar    1  ZINC000506156755   -0.1000
     29 C29        -8.8059    2.5544   64.1793 C.ar    1  ZINC000506156755   -0.1200
     30 C30        -9.5219    3.2899   63.2529 C.ar    1  ZINC000506156755   -0.1000
     31 C31       -10.0466    2.6715   62.1346 C.ar    1  ZINC000506156755   -0.1200
     32 H32       -14.1403    0.6631   61.1086 H       1  ZINC000506156755    0.0700
     33 H33       -12.4557    1.0923   61.4907 H       1  ZINC000506156755    0.0600
     34 H34       -13.5090    2.2680   60.6682 H       1  ZINC000506156755    0.0700
     35 H35       -12.2121   -1.1144   60.4038 H       1  ZINC000506156755    0.4000
     36 H36       -12.3840   -3.3505   59.6335 H       1  ZINC000506156755    0.1300
     37 H37       -12.8377   -3.6155   57.9329 H       1  ZINC000506156755    0.1300
     38 H38        -6.9115   -3.3621   59.8331 H       1  ZINC000506156755    0.1400
     39 H39        -5.1825   -3.8353   58.1410 H       1  ZINC000506156755    0.1400
     40 H40        -5.8059   -4.1809   55.7924 H       1  ZINC000506156755    0.1400
     41 H41        -8.1683   -4.0596   55.0989 H       1  ZINC000506156755    0.1400
     42 H42       -12.5573    2.1558   57.1753 H       1  ZINC000506156755    0.1300
     43 H43       -10.5751    3.3941   56.4032 H       1  ZINC000506156755    0.1300
     44 H44        -8.5023    3.3568   57.7296 H       1  ZINC000506156755    0.1300
     45 H45        -8.4070    2.0801   59.8320 H       1  ZINC000506156755    0.1300
     46 H46        -8.9988   -0.4871   62.7331 H       1  ZINC000506156755    0.1300
     47 H47        -8.0587    0.6251   64.7174 H       1  ZINC000506156755    0.1300
     48 H48        -8.3930    3.0407   65.0508 H       1  ZINC000506156755    0.1300
     49 H49        -9.6672    4.3498   63.4013 H       1  ZINC000506156755    0.1300
     50 H50       -10.6055    3.2464   61.4112 H       1  ZINC000506156755    0.1300
@<TRIPOS>BOND
     1     1     2    1
     2     1    32    1
     3     1    33    1
     4     1    34    1
     5     2     3    1
     6     2     4    1
     7     2    19    1
     8     4     5   am
     9     4    35    1
    10     5     6    2
    11     5     7    1
    12     7     8    1
    13     7    36    1
    14     7    37    1
    15     8    17   am
    16     8     9   am
    17     9    10    2
    18     9    11    1
    19    11    16   ar
    20    11    12   ar
    21    12    13   ar
    22    12    38    1
    23    13    14   ar
    24    13    39    1
    25    14    15   ar
    26    14    40    1
    27    15    16   ar
    28    15    41    1
    29    16    17    1
    30    17    18    2
    31    19    24   ar
    32    19    20   ar
    33    20    21   ar
    34    20    42    1
    35    21    22   ar
    36    21    43    1
    37    22    23   ar
    38    22    44    1
    39    23    24   ar
    40    23    45    1
    41    24    25    1
    42    25    26    1
    43    26    31   ar
    44    26    27   ar
    45    27    28   ar
    46    27    46    1
    47    28    29   ar
    48    28    47    1
    49    29    30   ar
    50    29    48    1
    51    30    31   ar
    52    30    49    1
    53    31    50    1
@<TRIPOS>SUBSTRUCTURE
     1 ZINC000506156755        1 TEMP              0 ****  ****    0 ROOT


##########                                Name:    ZINC000899027326
##########                DOCK_Rotatable_Bonds:                   5
##########                         Heavy_Atoms:                  22
##########                    Molecular_Weight:             346.169
##########                DOCK_Rotatable_Bonds:                   5
##########                       Formal_Charge:           0.0300005
##########                     HBond_Acceptors:                   9
##########                        HBond_Donors:                   1
##########                         Heavy_Atoms:                  22
##########                          Grid_Score:          -34.116272
##########                     Grid_vdw_energy:          -31.554787
##########                      Grid_es_energy:           -2.561487
##########           Internal_energy_repulsive:            9.084445

@<TRIPOS>MOLECULE
ZINC000899027326
 35 36 1 0 0
SMALL
USER_CHARGES


@<TRIPOS>ATOM
      1 C1         -9.0740    3.5666   62.6842 C.3     1  ZINC000899027326   -0.1500
      2 C2        -10.0387    2.4357   63.0469 C.3     1  ZINC000899027326    0.1100
      3 H3        -10.8878    2.8234   63.6097 H       1  ZINC000899027326    0.1400
      4 C4        -10.5099    1.7158   61.7989 C.2     1  ZINC000899027326    0.5300
      5 O5        -11.1340    2.1877   60.8730 O.2     1  ZINC000899027326   -0.4500
      6 N6        -10.0899    0.4422   61.9326 N.am    1  ZINC000899027326   -0.3700
      7 N7        -10.3197   -0.5655   60.9868 N.am    1  ZINC000899027326   -0.5000
      8 C8        -11.5814   -0.9266   60.6798 C.2     1  ZINC000899027326    0.5200
      9 O9        -12.5178   -0.3782   61.2213 O.2     1  ZINC000899027326   -0.4800
     10 C10       -11.8284   -2.0118   59.6638 C.3     1  ZINC000899027326    0.0500
     11 O11       -10.9749   -3.1246   59.9382 O.3     1  ZINC000899027326   -0.2700
     12 C12        -9.9427   -3.3372   59.0796 C.ar    1  ZINC000899027326    0.1400
     13 C13        -8.6349   -3.2631   59.5342 C.ar    1  ZINC000899027326   -0.1900
     14 C14        -7.5868   -3.4795   58.6600 C.ar    1  ZINC000899027326   -0.0600
     15 C15        -7.8410   -3.7700   57.3316 C.ar    1  ZINC000899027326   -0.0600
     16 Cl16       -6.5222   -4.0420   56.2360 Cl      1  ZINC000899027326   -0.0500
     17 C17        -9.1453   -3.8447   56.8750 C.ar    1  ZINC000899027326   -0.0600
     18 C18       -10.1966   -3.6346   57.7473 C.ar    1  ZINC000899027326   -0.0500
     19 Cl19      -11.8328   -3.7283   57.1745 Cl      1  ZINC000899027326   -0.0300
     20 C20        -9.4259    0.2594   63.0796 C.2     1  ZINC000899027326    0.7000
     21 O21        -8.9509   -0.8054   63.4228 O.2     1  ZINC000899027326   -0.5200
     22 N22        -9.3436    1.3875   63.8139 N.am    1  ZINC000899027326   -0.6200
     23 C23        -8.6881    1.5391   65.1153 C.3     1  ZINC000899027326    0.1200
     24 H24        -8.2389    3.1623   62.1120 H       1  ZINC000899027326    0.0700
     25 H25        -9.5971    4.3125   62.0859 H       1  ZINC000899027326    0.0900
     26 H26        -8.6986    4.0305   63.5963 H       1  ZINC000899027326    0.0900
     27 H27        -9.5707   -1.0033   60.5529 H       1  ZINC000899027326    0.4300
     28 H28       -12.8694   -2.3303   59.7181 H       1  ZINC000899027326    0.1100
     29 H29       -11.6171   -1.6295   58.6651 H       1  ZINC000899027326    0.1100
     30 H30        -8.4355   -3.0360   60.5711 H       1  ZINC000899027326    0.1500
     31 H31        -6.5682   -3.4213   59.0140 H       1  ZINC000899027326    0.1500
     32 H32        -9.3419   -4.0717   55.8375 H       1  ZINC000899027326    0.1500
     33 H33        -8.2615    0.5837   65.4207 H       1  ZINC000899027326    0.0900
     34 H34        -7.8952    2.2829   65.0383 H       1  ZINC000899027326    0.0700
     35 H35        -9.4199    1.8633   65.8551 H       1  ZINC000899027326    0.0700
@<TRIPOS>BOND
     1     1     2    1
     2     1    24    1
     3     1    25    1
     4     1    26    1
     5     2     3    1
     6     2    22    1
     7     2     4    1
     8     4     5    2
     9     4     6   am
    10     6     7    1
    11     6    20   am
    12     7     8   am
    13     7    27    1
    14     8     9    2
    15     8    10    1
    16    10    11    1
    17    10    28    1
    18    10    29    1
    19    11    12    1
    20    12    18   ar
    21    12    13   ar
    22    13    14   ar
    23    13    30    1
    24    14    15   ar
    25    14    31    1
    26    15    16    1
    27    15    17   ar
    28    17    18   ar
    29    17    32    1
    30    18    19    1
    31    20    21    2
    32    20    22   am
    33    22    23    1
    34    23    33    1
    35    23    34    1
    36    23    35    1
@<TRIPOS>SUBSTRUCTURE
     1 ZINC000899027326        1 TEMP              0 ****  ****    0 ROOT


##########                                Name:    ZINC000521663393
##########                DOCK_Rotatable_Bonds:                   5
##########                         Heavy_Atoms:                  27
##########                    Molecular_Weight:              386.49
##########                DOCK_Rotatable_Bonds:                   5
##########                       Formal_Charge:               -0.02
##########                     HBond_Acceptors:                   6
##########                        HBond_Donors:                   1
##########                         Heavy_Atoms:                  27
##########                          Grid_Score:          -34.050167
##########                     Grid_vdw_energy:          -31.969915
##########                      Grid_es_energy:           -2.080253
##########           Internal_energy_repulsive:           15.762204

@<TRIPOS>MOLECULE
ZINC000521663393
 50 53 1 0 0
SMALL
USER_CHARGES


@<TRIPOS>ATOM
      1 C1        -13.4525   -2.3334   58.1210 C.3     1  ZINC000521663393   -0.1500
      2 C2        -11.9829   -2.0742   57.7834 C.3     1  ZINC000521663393    0.0800
      3 H3        -11.8543   -1.0750   57.3671 H       1  ZINC000521663393    0.0900
      4 O4        -11.4852   -3.0720   56.8757 O.3     1  ZINC000521663393   -0.2900
      5 C5        -10.1747   -3.3158   57.1519 C.ar    1  ZINC000521663393    0.1400
      6 C6         -9.1912   -3.9055   56.3626 C.ar    1  ZINC000521663393   -0.1800
      7 C7         -7.9092   -4.0657   56.8530 C.ar    1  ZINC000521663393    0.1400
      8 F8         -6.9606   -4.6394   56.0809 F       1  ZINC000521663393   -0.1300
      9 C9         -7.5925   -3.6404   58.1322 C.ar    1  ZINC000521663393   -0.1800
     10 C10        -8.5646   -3.0494   58.9196 C.ar    1  ZINC000521663393   -0.0200
     11 C11        -9.8416   -2.8863   58.4307 C.ar    1  ZINC000521663393   -0.2000
     12 C12       -11.0913   -2.2663   59.0329 C.3     1  ZINC000521663393    0.1700
     13 H13       -11.5590   -2.9462   59.7449 H       1  ZINC000521663393    0.1200
     14 N14       -10.7853   -0.9803   59.6645 N.am    1  ZINC000521663393   -0.7200
     15 C15       -11.5327   -0.5418   60.6968 C.2     1  ZINC000521663393    0.5300
     16 O16       -12.4575   -1.2125   61.1040 O.2     1  ZINC000521663393   -0.5000
     17 C17       -11.2191    0.7819   61.3452 C.3     1  ZINC000521663393    0.1200
     18 H18       -12.1362    1.2201   61.7390 H       1  ZINC000521663393    0.0700
     19 C19       -10.2397    0.5703   62.4710 C.ar    1  ZINC000521663393   -0.0900
     20 C20        -9.0940   -0.1738   62.2597 C.ar    1  ZINC000521663393   -0.0900
     21 C21        -8.1958   -0.3679   63.2923 C.ar    1  ZINC000521663393   -0.1200
     22 C22        -8.4429    0.1824   64.5360 C.ar    1  ZINC000521663393   -0.1100
     23 C23        -9.5881    0.9272   64.7471 C.ar    1  ZINC000521663393   -0.1200
     24 C24       -10.4844    1.1249   63.7133 C.ar    1  ZINC000521663393   -0.1100
     25 N25       -10.6318    1.6882   60.3493 N.3     1  ZINC000521663393   -0.5300
     26 C26       -10.1361    2.9128   60.9815 C.3     1  ZINC000521663393    0.0500
     27 C27        -9.1580    3.6252   60.0411 C.3     1  ZINC000521663393   -0.0700
     28 S28       -10.0500    4.0921   58.5263 S.3     1  ZINC000521663393   -0.2700
     29 C29       -10.8295    2.5192   58.0495 C.3     1  ZINC000521663393   -0.0700
     30 C30       -11.5775    1.9591   59.2641 C.3     1  ZINC000521663393    0.0600
     31 H31       -13.7884   -1.6080   58.8621 H       1  ZINC000521663393    0.0800
     32 H32       -14.0553   -2.2362   57.2182 H       1  ZINC000521663393    0.0800
     33 H33       -13.5606   -3.3406   58.5235 H       1  ZINC000521663393    0.0700
     34 H34        -9.4310   -4.2392   55.3638 H       1  ZINC000521663393    0.1400
     35 H35        -6.5905   -3.7699   58.5140 H       1  ZINC000521663393    0.1400
     36 H36        -8.3219   -2.7160   59.9177 H       1  ZINC000521663393    0.1300
     37 H37       -10.0450   -0.4444   59.3396 H       1  ZINC000521663393    0.4000
     38 H38        -8.9009   -0.6037   61.2880 H       1  ZINC000521663393    0.1300
     39 H39        -7.3010   -0.9498   63.1274 H       1  ZINC000521663393    0.1300
     40 H40        -7.7414    0.0302   65.3430 H       1  ZINC000521663393    0.1200
     41 H41        -9.7815    1.3569   65.7189 H       1  ZINC000521663393    0.1300
     42 H42       -11.3792    1.7069   63.8782 H       1  ZINC000521663393    0.1200
     43 H43       -10.9755    3.5733   61.1991 H       1  ZINC000521663393    0.0500
     44 H44        -9.6257    2.6597   61.9109 H       1  ZINC000521663393    0.1000
     45 H45        -8.7684    4.5196   60.5271 H       1  ZINC000521663393    0.1100
     46 H46        -8.3367    2.9539   59.7904 H       1  ZINC000521663393    0.0900
     47 H47       -11.5320    2.6910   57.2340 H       1  ZINC000521663393    0.1100
     48 H48       -10.0629    1.8118   57.7332 H       1  ZINC000521663393    0.1000
     49 H49       -12.0819    1.0344   58.9840 H       1  ZINC000521663393    0.0800
     50 H50       -12.3166    2.6859   59.6009 H       1  ZINC000521663393    0.0500
@<TRIPOS>BOND
     1     1     2    1
     2     1    31    1
     3     1    32    1
     4     1    33    1
     5     2     3    1
     6     2    12    1
     7     2     4    1
     8     4     5    1
     9     5    11   ar
    10     5     6   ar
    11     6     7   ar
    12     6    34    1
    13     7     8    1
    14     7     9   ar
    15     9    10   ar
    16     9    35    1
    17    10    11   ar
    18    10    36    1
    19    11    12    1
    20    12    13    1
    21    12    14    1
    22    14    15   am
    23    14    37    1
    24    15    16    2
    25    15    17    1
    26    17    18    1
    27    17    19    1
    28    17    25    1
    29    19    24   ar
    30    19    20   ar
    31    20    21   ar
    32    20    38    1
    33    21    22   ar
    34    21    39    1
    35    22    23   ar
    36    22    40    1
    37    23    24   ar
    38    23    41    1
    39    24    42    1
    40    25    30    1
    41    25    26    1
    42    26    27    1
    43    26    43    1
    44    26    44    1
    45    27    28    1
    46    27    45    1
    47    27    46    1
    48    28    29    1
    49    29    30    1
    50    29    47    1
    51    29    48    1
    52    30    49    1
    53    30    50    1
@<TRIPOS>SUBSTRUCTURE
     1 ZINC000521663393        1 TEMP              0 ****  ****    0 ROOT


##########                                Name:    ZINC000995593866
##########                DOCK_Rotatable_Bonds:                   7
##########                         Heavy_Atoms:                  24
##########                    Molecular_Weight:             342.389
##########                DOCK_Rotatable_Bonds:                   7
##########                       Formal_Charge:                0.03
##########                     HBond_Acceptors:                   8
##########                        HBond_Donors:                   1
##########                         Heavy_Atoms:                  24
##########                          Grid_Score:          -34.018394
##########                     Grid_vdw_energy:          -30.727192
##########                      Grid_es_energy:           -3.291204
##########           Internal_energy_repulsive:           10.773659

@<TRIPOS>MOLECULE
ZINC000995593866
 48 50 1 0 0
SMALL
USER_CHARGES


@<TRIPOS>ATOM
      1 C1        -14.2640   -3.0300   59.9531 C.3     1  ZINC000995593866   -0.1400
      2 C2        -13.8264   -1.8818   59.0414 C.3     1  ZINC000995593866   -0.0800
      3 C3        -14.6259   -1.9053   57.7371 C.3     1  ZINC000995593866   -0.1400
      4 C4        -14.0068   -0.5272   59.7599 C.3     1  ZINC000995593866    0.1200
      5 N5        -12.6788   -0.2366   60.3485 N.am    1  ZINC000995593866   -0.6300
      6 C6        -12.4089    0.3025   61.5540 C.2     1  ZINC000995593866    0.5400
      7 O7        -13.3163    0.6117   62.2969 O.2     1  ZINC000995593866   -0.5300
      8 C8        -10.9796    0.5211   61.9786 C.3     1  ZINC000995593866   -0.1300
      9 C9        -10.9513    1.3329   63.2752 C.3     1  ZINC000995593866   -0.1000
     10 C10        -9.5344    1.7284   63.7235 C.3     1  ZINC000995593866   -0.1300
     11 C11       -10.1247    3.0928   64.1170 C.3     1  ZINC000995593866   -0.1400
     12 C12       -11.2196    2.8329   63.0689 C.3     1  ZINC000995593866   -0.1400
     13 C13       -11.7148   -0.6727   59.3117 C.3     1  ZINC000995593866    0.1100
     14 C14       -12.3151   -1.9778   58.7459 C.3     1  ZINC000995593866    0.0800
     15 H15       -11.8846   -2.8428   59.2502 H       1  ZINC000995593866    0.0700
     16 N16       -12.0801   -2.0625   57.2982 N.3     1  ZINC000995593866   -0.6800
     17 C17       -11.7183   -3.4302   56.9028 C.3     1  ZINC000995593866    0.1500
     18 C18       -10.2527   -3.6588   57.1680 C.2     1  ZINC000995593866    0.1900
     19 N19        -9.3132   -3.8271   56.2687 N.2     1  ZINC000995593866   -0.4300
     20 C20        -8.1735   -3.9950   56.9628 C.2     1  ZINC000995593866    0.0900
     21 C21        -6.8017   -4.2253   56.3828 C.3     1  ZINC000995593866    0.3800
     22 F22        -6.6029   -5.5960   56.1859 F       1  ZINC000995593866   -0.1800
     23 F23        -6.6953   -3.5579   55.1579 F       1  ZINC000995593866   -0.1700
     24 N24        -8.4724   -3.9216   58.2253 N.2     1  ZINC000995593866   -0.3400
     25 O25        -9.6608   -3.7230   58.3646 O.3     1  ZINC000995593866    0.1000
     26 H26       -13.7140   -2.9777   60.8927 H       1  ZINC000995593866    0.0600
     27 H27       -15.3325   -2.9486   60.1524 H       1  ZINC000995593866    0.0600
     28 H28       -14.0572   -3.9817   59.4636 H       1  ZINC000995593866    0.0600
     29 H29       -15.6886   -1.8106   57.9606 H       1  ZINC000995593866    0.0700
     30 H30       -14.3125   -1.0754   57.1038 H       1  ZINC000995593866    0.0700
     31 H31       -14.4464   -2.8467   57.2178 H       1  ZINC000995593866    0.0600
     32 H32       -14.2839    0.2479   59.0455 H       1  ZINC000995593866    0.0800
     33 H33       -14.7600   -0.6101   60.5434 H       1  ZINC000995593866    0.0900
     34 H34       -10.4979   -0.4428   62.1428 H       1  ZINC000995593866    0.0900
     35 H35       -10.4477    1.0648   61.1979 H       1  ZINC000995593866    0.0900
     36 H36       -11.5526    0.8866   64.0672 H       1  ZINC000995593866    0.1000
     37 H37        -9.1676    1.1504   64.5718 H       1  ZINC000995593866    0.0700
     38 H38        -8.8167    1.7828   62.9049 H       1  ZINC000995593866    0.0800
     39 H39       -10.4991    3.1279   65.1400 H       1  ZINC000995593866    0.0800
     40 H40        -9.4777    3.9353   63.8727 H       1  ZINC000995593866    0.0700
     41 H41       -10.9626    3.1894   62.0713 H       1  ZINC000995593866    0.0800
     42 H42       -12.2133    3.1468   63.3886 H       1  ZINC000995593866    0.0700
     43 H43       -11.6339    0.0798   58.5273 H       1  ZINC000995593866    0.0900
     44 H44       -10.7388   -0.8653   59.7571 H       1  ZINC000995593866    0.0800
     45 H45       -12.8834   -1.7372   56.7818 H       1  ZINC000995593866    0.3600
     46 H46       -12.3075   -4.1431   57.4796 H       1  ZINC000995593866    0.1200
     47 H47       -11.9210   -3.5668   55.8405 H       1  ZINC000995593866    0.0800
     48 H48        -6.0475   -3.8440   57.0711 H       1  ZINC000995593866    0.1500
@<TRIPOS>BOND
     1     1     2    1
     2     1    26    1
     3     1    27    1
     4     1    28    1
     5     2    14    1
     6     2     3    1
     7     2     4    1
     8     3    29    1
     9     3    30    1
    10     3    31    1
    11     4     5    1
    12     4    32    1
    13     4    33    1
    14     5     6   am
    15     5    13    1
    16     6     7    2
    17     6     8    1
    18     8     9    1
    19     8    34    1
    20     8    35    1
    21     9    12    1
    22     9    10    1
    23     9    36    1
    24    10    11    1
    25    10    37    1
    26    10    38    1
    27    11    12    1
    28    11    39    1
    29    11    40    1
    30    12    41    1
    31    12    42    1
    32    13    14    1
    33    13    43    1
    34    13    44    1
    35    14    15    1
    36    14    16    1
    37    16    17    1
    38    16    45    1
    39    17    18    1
    40    17    46    1
    41    17    47    1
    42    18    25    1
    43    18    19    2
    44    19    20    1
    45    20    21    1
    46    20    24    2
    47    21    22    1
    48    21    23    1
    49    21    48    1
    50    24    25    1
@<TRIPOS>SUBSTRUCTURE
     1 ZINC000995593866        1 TEMP              0 ****  ****    0 ROOT


##########                                Name:    ZINC001436455587
##########                DOCK_Rotatable_Bonds:                   9
##########                         Heavy_Atoms:                  21
##########                    Molecular_Weight:             378.693
##########                DOCK_Rotatable_Bonds:                   9
##########                       Formal_Charge:          -0.0200001
##########                     HBond_Acceptors:                   5
##########                        HBond_Donors:                   1
##########                         Heavy_Atoms:                  21
##########                          Grid_Score:          -33.968952
##########                     Grid_vdw_energy:          -31.217398
##########                      Grid_es_energy:           -2.751554
##########           Internal_energy_repulsive:           14.931045

@<TRIPOS>MOLECULE
ZINC001436455587
 42 42 1 0 0
SMALL
USER_CHARGES


@<TRIPOS>ATOM
      1 C1         -7.3989    0.8367   66.2478 C.3     1  ZINC001436455587   -0.1500
      2 C2         -8.0793   -0.3078   65.4942 C.3     1  ZINC001436455587   -0.1300
      3 C3         -8.7770    0.2447   64.2496 C.3     1  ZINC001436455587   -0.1400
      4 C4         -9.7070    1.3907   64.6528 C.3     1  ZINC001436455587    0.0800
      5 H5         -9.9732    1.2895   65.7050 H       1  ZINC001436455587    0.0700
      6 C6        -10.9757    1.3425   63.7989 C.3     1  ZINC001436455587    0.1200
      7 N7        -10.6243    0.9868   62.4219 N.am    1  ZINC001436455587   -0.7200
      8 C8        -11.4829    0.2681   61.6717 C.2     1  ZINC001436455587    0.5200
      9 O9        -12.5468   -0.0829   62.1360 O.2     1  ZINC001436455587   -0.5100
     10 C10       -11.1207   -0.0994   60.2557 C.3     1  ZINC001436455587    0.0600
     11 H11       -10.0656    0.1138   60.0835 H       1  ZINC001436455587    0.1000
     12 C12       -11.9717    0.7191   59.2828 C.3     1  ZINC001436455587   -0.1800
     13 O13       -11.3654   -1.4917   60.0475 O.3     1  ZINC001436455587   -0.2700
     14 C14       -10.4504   -2.1758   59.3107 C.ar    1  ZINC001436455587    0.1600
     15 C15        -9.1128   -2.1595   59.6758 C.ar    1  ZINC001436455587   -0.2000
     16 C16        -8.1841   -2.8558   58.9260 C.ar    1  ZINC001436455587   -0.0500
     17 C17        -8.5876   -3.5688   57.8112 C.ar    1  ZINC001436455587   -0.0700
     18 Cl18       -7.4186   -4.4421   56.8709 Cl      1  ZINC001436455587   -0.0600
     19 C19        -9.9220   -3.5871   57.4449 C.ar    1  ZINC001436455587   -0.0400
     20 C20       -10.8547   -2.8964   58.1951 C.ar    1  ZINC001436455587   -0.1200
     21 Br21      -12.6781   -2.9214   57.6945 Br      1  ZINC001436455587   -0.0100
     22 O22        -9.0419    2.6387   64.4476 O.3     1  ZINC001436455587   -0.3800
     23 C23        -9.4795    3.6812   65.3215 C.3     1  ZINC001436455587    0.0200
     24 H24        -6.6628    1.3119   65.5993 H       1  ZINC001436455587    0.0500
     25 H25        -8.1474    1.5708   66.5465 H       1  ZINC001436455587    0.0600
     26 H26        -6.9018    0.4433   67.1344 H       1  ZINC001436455587    0.0600
     27 H27        -7.3308   -1.0417   65.1954 H       1  ZINC001436455587    0.0600
     28 H28        -8.8154   -0.7828   66.1426 H       1  ZINC001436455587    0.0700
     29 H29        -8.0293    0.6135   63.5475 H       1  ZINC001436455587    0.0800
     30 H30        -9.3592   -0.5469   63.7780 H       1  ZINC001436455587    0.0800
     31 H31       -11.6583    0.5955   64.2043 H       1  ZINC001436455587    0.0800
     32 H32       -11.4584    2.3197   63.8100 H       1  ZINC001436455587    0.0800
     33 H33        -9.7739    1.2685   62.0502 H       1  ZINC001436455587    0.4000
     34 H34       -11.7098    0.4533   58.2586 H       1  ZINC001436455587    0.0800
     35 H35       -13.0268    0.5060   59.4549 H       1  ZINC001436455587    0.0800
     36 H36       -11.7850    1.7812   59.4416 H       1  ZINC001436455587    0.0800
     37 H37        -8.7969   -1.6026   60.5455 H       1  ZINC001436455587    0.1500
     38 H38        -7.1423   -2.8432   59.2102 H       1  ZINC001436455587    0.1400
     39 H39       -10.2351   -4.1445   56.5745 H       1  ZINC001436455587    0.1500
     40 H40        -9.2204    3.4266   66.3492 H       1  ZINC001436455587    0.0500
     41 H41        -8.9919    4.6160   65.0447 H       1  ZINC001436455587    0.0900
     42 H42       -10.5602    3.7962   65.2371 H       1  ZINC001436455587    0.0400
@<TRIPOS>BOND
     1     1     2    1
     2     1    24    1
     3     1    25    1
     4     1    26    1
     5     2     3    1
     6     2    27    1
     7     2    28    1
     8     3     4    1
     9     3    29    1
    10     3    30    1
    11     4     5    1
    12     4     6    1
    13     4    22    1
    14     6     7    1
    15     6    31    1
    16     6    32    1
    17     7     8   am
    18     7    33    1
    19     8     9    2
    20     8    10    1
    21    10    11    1
    22    10    12    1
    23    10    13    1
    24    12    34    1
    25    12    35    1
    26    12    36    1
    27    13    14    1
    28    14    20   ar
    29    14    15   ar
    30    15    16   ar
    31    15    37    1
    32    16    17   ar
    33    16    38    1
    34    17    18    1
    35    17    19   ar
    36    19    20   ar
    37    19    39    1
    38    20    21    1
    39    22    23    1
    40    23    40    1
    41    23    41    1
    42    23    42    1
@<TRIPOS>SUBSTRUCTURE
     1 ZINC001436455587        1 TEMP              0 ****  ****    0 ROOT


##########                                Name:    ZINC000450219577
##########                DOCK_Rotatable_Bonds:                   8
##########                         Heavy_Atoms:                  26
##########                    Molecular_Weight:             353.421
##########                DOCK_Rotatable_Bonds:                   8
##########                       Formal_Charge:          -0.0199997
##########                     HBond_Acceptors:                   6
##########                        HBond_Donors:                   1
##########                         Heavy_Atoms:                  26
##########                          Grid_Score:          -33.935577
##########                     Grid_vdw_energy:          -32.526020
##########                      Grid_es_energy:           -1.409558
##########           Internal_energy_repulsive:           38.369587

@<TRIPOS>MOLECULE
ZINC000450219577
 49 51 1 0 0
SMALL
USER_CHARGES


@<TRIPOS>ATOM
      1 C1        -12.3869    2.5134   57.3157 C.3     1  ZINC000450219577   -0.1800
      2 C2        -13.1433    1.9645   58.5272 C.3     1  ZINC000450219577    0.1200
      3 C3        -13.7288    3.1264   59.3322 C.3     1  ZINC000450219577   -0.1800
      4 C4        -14.2755    1.0523   58.0509 C.3     1  ZINC000450219577   -0.1400
      5 O5        -12.2309    1.2067   59.3647 O.3     1  ZINC000450219577   -0.3400
      6 C6        -12.7437    0.6429   60.4697 C.2     1  ZINC000450219577    0.4700
      7 O7        -13.9138    0.7874   60.7342 O.2     1  ZINC000450219577   -0.5000
      8 C8        -11.8600   -0.1702   61.3801 C.3     1  ZINC000450219577    0.2000
      9 H9        -12.4634   -0.9094   61.9070 H       1  ZINC000450219577    0.1400
     10 N10       -10.8362   -0.8528   60.5851 N.am    1  ZINC000450219577   -0.7100
     11 C11       -11.1378   -1.9939   59.9345 C.2     1  ZINC000450219577    0.5800
     12 O12       -12.2598   -2.4559   60.0061 O.2     1  ZINC000450219577   -0.5200
     13 C13       -10.1042   -2.6836   59.1337 C.ar    1  ZINC000450219577   -0.2500
     14 C14        -8.7874   -2.7888   59.5958 C.ar    1  ZINC000450219577    0.1900
     15 N15        -7.8956   -3.4143   58.8477 N.ar    1  ZINC000450219577   -0.5100
     16 C16        -8.2315   -3.9342   57.6833 C.ar    1  ZINC000450219577    0.3800
     17 C17        -7.1779   -4.6378   56.8674 C.3     1  ZINC000450219577   -0.1100
     18 C18        -6.7882   -4.0123   55.5265 C.3     1  ZINC000450219577   -0.1500
     19 C19        -5.8236   -3.9428   56.7120 C.3     1  ZINC000450219577   -0.1500
     20 N20        -9.4601   -3.8584   57.2104 N.ar    1  ZINC000450219577   -0.5200
     21 C21       -10.4161   -3.2551   57.8949 C.ar    1  ZINC000450219577    0.2200
     22 C22       -11.1952    0.7406   62.3799 C.ar    1  ZINC000450219577   -0.1100
     23 C23       -11.8301    1.8983   62.7893 C.ar    1  ZINC000450219577   -0.1000
     24 C24       -11.2203    2.7336   63.7065 C.ar    1  ZINC000450219577   -0.1200
     25 C25        -9.9757    2.4112   64.2144 C.ar    1  ZINC000450219577   -0.1100
     26 C26        -9.3412    1.2531   63.8056 C.ar    1  ZINC000450219577   -0.1200
     27 C27        -9.9529    0.4155   62.8917 C.ar    1  ZINC000450219577   -0.0800
     28 H28       -11.5803    3.1634   57.6549 H       1  ZINC000450219577    0.0800
     29 H29       -11.9699    1.6857   56.7422 H       1  ZINC000450219577    0.0600
     30 H30       -13.0719    3.0823   56.6869 H       1  ZINC000450219577    0.0700
     31 H31       -14.4138    3.6953   58.7034 H       1  ZINC000450219577    0.0700
     32 H32       -14.2678    2.7354   60.1951 H       1  ZINC000450219577    0.0600
     33 H33       -12.9222    3.7764   59.6714 H       1  ZINC000450219577    0.0800
     34 H34       -13.8584    0.2245   57.4775 H       1  ZINC000450219577    0.0700
     35 H35       -14.8144    0.6613   58.9140 H       1  ZINC000450219577    0.0700
     36 H36       -14.9605    1.6212   57.4222 H       1  ZINC000450219577    0.0800
     37 H37        -9.9411   -0.4835   60.5269 H       1  ZINC000450219577    0.4100
     38 H38        -8.5045   -2.3652   60.5481 H       1  ZINC000450219577    0.1700
     39 H39        -7.1805   -5.7257   56.9337 H       1  ZINC000450219577    0.1300
     40 H40        -6.5346   -4.6889   54.7103 H       1  ZINC000450219577    0.1000
     41 H41        -7.2940   -3.0920   55.2345 H       1  ZINC000450219577    0.1100
     42 H42        -5.6948   -2.9767   57.2000 H       1  ZINC000450219577    0.1000
     43 H43        -4.9354   -4.5736   56.6759 H       1  ZINC000450219577    0.1100
     44 H44       -11.4200   -3.1970   57.5010 H       1  ZINC000450219577    0.1800
     45 H45       -12.8025    2.1501   62.3926 H       1  ZINC000450219577    0.1200
     46 H46       -11.7160    3.6384   64.0258 H       1  ZINC000450219577    0.1200
     47 H47        -9.4990    3.0643   64.9304 H       1  ZINC000450219577    0.1300
     48 H48        -8.3687    1.0014   64.2022 H       1  ZINC000450219577    0.1300
     49 H49        -9.4572   -0.4892   62.5724 H       1  ZINC000450219577    0.1300
@<TRIPOS>BOND
     1     1     2    1
     2     1    28    1
     3     1    29    1
     4     1    30    1
     5     2     3    1
     6     2     4    1
     7     2     5    1
     8     3    31    1
     9     3    32    1
    10     3    33    1
    11     4    34    1
    12     4    35    1
    13     4    36    1
    14     5     6    1
    15     6     7    2
    16     6     8    1
    17     8     9    1
    18     8    10    1
    19     8    22    1
    20    10    11   am
    21    10    37    1
    22    11    12    2
    23    11    13    1
    24    13    21   ar
    25    13    14   ar
    26    14    15   ar
    27    14    38    1
    28    15    16   ar
    29    16    17    1
    30    16    20   ar
    31    17    19    1
    32    17    18    1
    33    17    39    1
    34    18    19    1
    35    18    40    1
    36    18    41    1
    37    19    42    1
    38    19    43    1
    39    20    21   ar
    40    21    44    1
    41    22    27   ar
    42    22    23   ar
    43    23    24   ar
    44    23    45    1
    45    24    25   ar
    46    24    46    1
    47    25    26   ar
    48    25    47    1
    49    26    27   ar
    50    26    48    1
    51    27    49    1
@<TRIPOS>SUBSTRUCTURE
     1 ZINC000450219577        1 TEMP              0 ****  ****    0 ROOT


##########                                Name:    ZINC000119180466
##########                DOCK_Rotatable_Bonds:                  10
##########                         Heavy_Atoms:                  23
##########                    Molecular_Weight:             350.405
##########                DOCK_Rotatable_Bonds:                  10
##########                       Formal_Charge:           0.0299997
##########                     HBond_Acceptors:                   8
##########                        HBond_Donors:                   3
##########                         Heavy_Atoms:                  23
##########                          Grid_Score:          -33.913960
##########                     Grid_vdw_energy:          -30.500357
##########                      Grid_es_energy:           -3.413604
##########           Internal_energy_repulsive:           21.758333

@<TRIPOS>MOLECULE
ZINC000119180466
 44 44 1 0 0
SMALL
USER_CHARGES


@<TRIPOS>ATOM
      1 C1         -9.1070    2.3668   65.1558 C.3     1  ZINC000119180466   -0.1300
      2 S2         -9.9884    1.2218   64.0591 S.3     1  ZINC000119180466   -0.2200
      3 C3        -11.4616    2.1664   63.5818 C.3     1  ZINC000119180466   -0.0700
      4 H4        -11.1573    3.0880   63.0856 H       1  ZINC000119180466    0.1100
      5 C5        -12.2772    2.5052   64.8312 C.3     1  ZINC000119180466    0.0800
      6 O6        -12.7206    1.2971   65.4525 O.3     1  ZINC000119180466   -0.5600
      7 C7        -12.3158    1.3308   62.6262 C.3     1  ZINC000119180466    0.1900
      8 H8        -12.8054    0.5309   63.1817 H       1  ZINC000119180466    0.1000
      9 C9        -13.3753    2.2231   61.9765 C.3     1  ZINC000119180466   -0.1700
     10 N10       -11.4611    0.7515   61.5871 N.am    1  ZINC000119180466   -0.7200
     11 C11       -11.7500   -0.4616   61.0758 C.2     1  ZINC000119180466    0.7100
     12 O12       -12.7209   -1.0745   61.4760 O.2     1  ZINC000119180466   -0.6000
     13 N13       -10.9627   -0.9953   60.1208 N.am    1  ZINC000119180466   -0.7400
     14 C14       -11.2778   -2.3132   59.5638 C.3     1  ZINC000119180466    0.2000
     15 H15       -11.5192   -3.0016   60.3736 H       1  ZINC000119180466    0.1000
     16 C16       -12.4766   -2.1948   58.6205 C.3     1  ZINC000119180466   -0.1600
     17 C17       -10.0872   -2.8334   58.8003 C.ar    1  ZINC000119180466   -0.0600
     18 C18       -10.2516   -3.3396   57.5245 C.ar    1  ZINC000119180466   -0.1100
     19 C19        -9.1594   -3.8168   56.8243 C.ar    1  ZINC000119180466   -0.0600
     20 C20        -7.9029   -3.7875   57.3996 C.ar    1  ZINC000119180466   -0.1800
     21 C21        -6.7124   -4.3082   56.6365 C.3     1  ZINC000119180466    0.5100
     22 F22        -5.5671   -4.2079   57.4338 F       1  ZINC000119180466   -0.1800
     23 F23        -6.9268   -5.6478   56.2949 F       1  ZINC000119180466   -0.1800
     24 F24        -6.5377   -3.5523   55.4723 F       1  ZINC000119180466   -0.1800
     25 C25        -7.7382   -3.2801   58.6749 C.ar    1  ZINC000119180466   -0.0600
     26 C26        -8.8298   -2.7993   59.3737 C.ar    1  ZINC000119180466   -0.1100
     27 H27        -9.7404    2.6140   66.0077 H       1  ZINC000119180466    0.0800
     28 H28        -8.1892    1.8972   65.5095 H       1  ZINC000119180466    0.1000
     29 H29        -8.8619    3.2774   64.6090 H       1  ZINC000119180466    0.0800
     30 H30       -11.6560    3.0661   65.5295 H       1  ZINC000119180466    0.0500
     31 H31       -13.1410    3.1070   64.5491 H       1  ZINC000119180466    0.0600
     32 H32       -12.0032    0.7084   65.7242 H       1  ZINC000119180466    0.3800
     33 H33       -12.8857    3.0230   61.4211 H       1  ZINC000119180466    0.0700
     34 H34       -13.9838    1.6277   61.2958 H       1  ZINC000119180466    0.0700
     35 H35       -14.0113    2.6541   62.7497 H       1  ZINC000119180466    0.0700
     36 H36       -10.6873    1.2410   61.2668 H       1  ZINC000119180466    0.4100
     37 H37       -10.1876   -0.5069   59.8024 H       1  ZINC000119180466    0.4000
     38 H38       -12.7110   -3.1753   58.2061 H       1  ZINC000119180466    0.0700
     39 H39       -13.3377   -1.8185   59.1728 H       1  ZINC000119180466    0.0700
     40 H40       -12.2351   -1.5064   57.8107 H       1  ZINC000119180466    0.0600
     41 H41       -11.2333   -3.3625   57.0751 H       1  ZINC000119180466    0.1300
     42 H42        -9.2880   -4.2129   55.8278 H       1  ZINC000119180466    0.1400
     43 H43        -6.7565   -3.2569   59.1243 H       1  ZINC000119180466    0.1400
     44 H44        -8.7013   -2.4029   60.3701 H       1  ZINC000119180466    0.1400
@<TRIPOS>BOND
     1     1     2    1
     2     1    27    1
     3     1    28    1
     4     1    29    1
     5     2     3    1
     6     3     4    1
     7     3     5    1
     8     3     7    1
     9     5     6    1
    10     5    30    1
    11     5    31    1
    12     6    32    1
    13     7     8    1
    14     7     9    1
    15     7    10    1
    16     9    33    1
    17     9    34    1
    18     9    35    1
    19    10    11   am
    20    10    36    1
    21    11    12    2
    22    11    13   am
    23    13    14    1
    24    13    37    1
    25    14    15    1
    26    14    16    1
    27    14    17    1
    28    16    38    1
    29    16    39    1
    30    16    40    1
    31    17    26   ar
    32    17    18   ar
    33    18    19   ar
    34    18    41    1
    35    19    20   ar
    36    19    42    1
    37    20    21    1
    38    20    25   ar
    39    21    22    1
    40    21    23    1
    41    21    24    1
    42    25    26   ar
    43    25    43    1
    44    26    44    1
@<TRIPOS>SUBSTRUCTURE
     1 ZINC000119180466        1 TEMP              0 ****  ****    0 ROOT


##########                                Name:    ZINC001124460178
##########                DOCK_Rotatable_Bonds:                  12
##########                         Heavy_Atoms:                  22
##########                    Molecular_Weight:             328.479
##########                DOCK_Rotatable_Bonds:                  12
##########                       Formal_Charge:          -0.0100003
##########                     HBond_Acceptors:                   7
##########                        HBond_Donors:                   2
##########                         Heavy_Atoms:                  22
##########                          Grid_Score:          -33.897038
##########                     Grid_vdw_energy:          -35.244453
##########                      Grid_es_energy:            1.347415
##########           Internal_energy_repulsive:           20.111935

@<TRIPOS>MOLECULE
ZINC001124460178
 50 50 1 0 0
SMALL
USER_CHARGES


@<TRIPOS>ATOM
      1 C1         -6.1908   -3.9827   56.0877 C.3     1  ZINC001124460178   -0.0700
      2 C2         -7.3619   -3.8207   57.0222 C.2     1  ZINC001124460178    0.3100
      3 N3         -7.1823   -3.6280   58.2965 N.2     1  ZINC001124460178   -0.5000
      4 S4         -8.7384   -3.5005   58.9680 S.3     1  ZINC001124460178    0.1800
      5 C5         -9.5544   -3.7181   57.4660 C.2     1  ZINC001124460178    0.3400
      6 N6        -10.9194   -3.7307   57.2435 N.pl3   1  ZINC001124460178   -0.6600
      7 C7        -11.7855   -2.7832   57.9495 C.3     1  ZINC001124460178    0.0900
      8 C8        -13.2436   -3.0396   57.5632 C.3     1  ZINC001124460178    0.0800
      9 H9        -13.4942   -2.4523   56.6799 H       1  ZINC001124460178    0.1200
     10 O10       -13.4237   -4.4284   57.2787 O.3     1  ZINC001124460178   -0.5500
     11 C11       -14.1569   -2.6337   58.7216 C.3     1  ZINC001124460178    0.0900
     12 N12       -14.0384   -1.1922   58.9549 N.am    1  ZINC001124460178   -0.6100
     13 C13       -14.6296   -0.2455   58.0060 C.3     1  ZINC001124460178    0.0800
     14 C14       -13.3853   -0.7371   60.0424 C.2     1  ZINC001124460178    0.5100
     15 O15       -12.8946   -1.5208   60.8272 O.2     1  ZINC001124460178   -0.5400
     16 C16       -13.2649    0.7456   60.2834 C.3     1  ZINC001124460178   -0.1400
     17 C17       -12.8598    0.9948   61.7377 C.3     1  ZINC001124460178   -0.1100
     18 C18       -11.3364    0.9237   61.8620 C.3     1  ZINC001124460178   -0.1200
     19 C19       -10.9261    1.2546   63.2982 C.3     1  ZINC001124460178   -0.1200
     20 C20        -9.4003    1.2345   63.4102 C.3     1  ZINC001124460178   -0.1000
     21 C21        -8.9897    1.5703   64.8453 C.3     1  ZINC001124460178   -0.1500
     22 C22        -8.8803   -0.1568   63.0433 C.3     1  ZINC001124460178   -0.1500
     23 N23        -8.5957   -3.8642   56.5758 N.2     1  ZINC001124460178   -0.5800
     24 H24        -5.8892   -3.0056   55.7103 H       1  ZINC001124460178    0.0900
     25 H25        -5.3581   -4.4378   56.6240 H       1  ZINC001124460178    0.0900
     26 H26        -6.4779   -4.6219   55.2527 H       1  ZINC001124460178    0.0900
     27 H27       -11.3033   -4.3670   56.6200 H       1  ZINC001124460178    0.4200
     28 H28       -11.6662   -2.9137   59.0251 H       1  ZINC001124460178    0.0800
     29 H29       -11.5104   -1.7650   57.6743 H       1  ZINC001124460178    0.0900
     30 H30       -12.6279   -4.8692   56.9509 H       1  ZINC001124460178    0.3800
     31 H31       -15.1897   -2.8777   58.4727 H       1  ZINC001124460178    0.0900
     32 H32       -13.8631   -3.1728   59.6221 H       1  ZINC001124460178    0.1000
     33 H33       -15.6546   -0.0248   58.3040 H       1  ZINC001124460178    0.0600
     34 H34       -14.0465    0.6754   58.0005 H       1  ZINC001124460178    0.0800
     35 H35       -14.6276   -0.6828   57.0076 H       1  ZINC001124460178    0.0800
     36 H36       -12.5075    1.1615   59.6189 H       1  ZINC001124460178    0.0900
     37 H37       -14.2239    1.2249   60.0862 H       1  ZINC001124460178    0.0900
     38 H38       -13.2039    1.9818   62.0467 H       1  ZINC001124460178    0.0700
     39 H39       -13.3123    0.2360   62.3760 H       1  ZINC001124460178    0.0700
     40 H40       -10.9979   -0.0812   61.6097 H       1  ZINC001124460178    0.0600
     41 H41       -10.8823    1.6421   61.1796 H       1  ZINC001124460178    0.0600
     42 H42       -11.2967    2.2448   63.5631 H       1  ZINC001124460178    0.0600
     43 H43       -11.3499    0.5144   63.9770 H       1  ZINC001124460178    0.0600
     44 H44        -8.9763    1.9722   62.7289 H       1  ZINC001124460178    0.0700
     45 H45        -9.4138    0.8326   65.5266 H       1  ZINC001124460178    0.0500
     46 H46        -7.9027    1.5560   64.9250 H       1  ZINC001124460178    0.0500
     47 H47        -9.3601    2.5615   65.1067 H       1  ZINC001124460178    0.0500
     48 H48        -9.1728   -0.3960   62.0209 H       1  ZINC001124460178    0.0600
     49 H49        -7.7933   -0.1712   63.1229 H       1  ZINC001124460178    0.0500
     50 H50        -9.3043   -0.8945   63.7244 H       1  ZINC001124460178    0.0500
@<TRIPOS>BOND
     1     1     2    1
     2     1    24    1
     3     1    25    1
     4     1    26    1
     5     2    23    1
     6     2     3    2
     7     3     4    1
     8     4     5    1
     9     5     6    1
    10     5    23    2
    11     6     7    1
    12     6    27    1
    13     7     8    1
    14     7    28    1
    15     7    29    1
    16     8     9    1
    17     8    10    1
    18     8    11    1
    19    10    30    1
    20    11    12    1
    21    11    31    1
    22    11    32    1
    23    12    13    1
    24    12    14   am
    25    13    33    1
    26    13    34    1
    27    13    35    1
    28    14    15    2
    29    14    16    1
    30    16    17    1
    31    16    36    1
    32    16    37    1
    33    17    18    1
    34    17    38    1
    35    17    39    1
    36    18    19    1
    37    18    40    1
    38    18    41    1
    39    19    20    1
    40    19    42    1
    41    19    43    1
    42    20    21    1
    43    20    22    1
    44    20    44    1
    45    21    45    1
    46    21    46    1
    47    21    47    1
    48    22    48    1
    49    22    49    1
    50    22    50    1
@<TRIPOS>SUBSTRUCTURE
     1 ZINC001124460178        1 TEMP              0 ****  ****    0 ROOT


##########                                Name:    ZINC000489986384
##########                DOCK_Rotatable_Bonds:                  11
##########                         Heavy_Atoms:                  31
##########                    Molecular_Weight:             415.492
##########                DOCK_Rotatable_Bonds:                  11
##########                       Formal_Charge:          -0.0499997
##########                     HBond_Acceptors:                   6
##########                        HBond_Donors:                   2
##########                         Heavy_Atoms:                  31
##########                          Grid_Score:          -33.887730
##########                     Grid_vdw_energy:          -34.601616
##########                      Grid_es_energy:            0.713886
##########           Internal_energy_repulsive:           18.489735

@<TRIPOS>MOLECULE
ZINC000489986384
 56 59 1 0 0
SMALL
USER_CHARGES


@<TRIPOS>ATOM
      1 O1        -10.0793    1.6339   58.7625 O.2     1  ZINC000489986384   -0.5000
      2 C2        -10.9050    1.6648   59.6502 C.2     1  ZINC000489986384    0.4900
      3 C3        -11.4119    0.3800   60.2529 C.3     1  ZINC000489986384    0.0900
      4 N4        -10.4152   -0.1472   61.1883 N.pl3   1  ZINC000489986384   -0.4700
      5 C5        -10.1430    0.3365   62.4525 C.ar    1  ZINC000489986384    0.0700
      6 C6        -10.6487    1.3772   63.2189 C.ar    1  ZINC000489986384   -0.1100
      7 C7        -10.1443    1.6027   64.4823 C.ar    1  ZINC000489986384   -0.0900
      8 C8         -9.1356    0.7971   64.9908 C.ar    1  ZINC000489986384   -0.1300
      9 C9         -8.6253   -0.2316   64.2504 C.ar    1  ZINC000489986384   -0.0600
     10 C10        -9.1215   -0.4795   62.9682 C.ar    1  ZINC000489986384    0.0500
     11 N11        -8.8294   -1.3988   62.0125 N.2     1  ZINC000489986384   -0.4600
     12 C12        -9.5905   -1.2079   60.9747 C.2     1  ZINC000489986384    0.2800
     13 C13        -9.5557   -2.0342   59.7149 C.3     1  ZINC000489986384    0.1400
     14 O14        -8.4285   -2.9118   59.7518 O.3     1  ZINC000489986384   -0.3000
     15 C15        -7.8972   -3.2842   58.5578 C.ar    1  ZINC000489986384    0.1300
     16 C16        -8.7204   -3.4580   57.4548 C.ar    1  ZINC000489986384   -0.2100
     17 C17        -8.1777   -3.8361   56.2420 C.ar    1  ZINC000489986384   -0.0800
     18 C18        -6.8153   -4.0418   56.1270 C.ar    1  ZINC000489986384   -0.1600
     19 C19        -5.9927   -3.8698   57.2249 C.ar    1  ZINC000489986384   -0.0800
     20 C20        -6.5298   -3.4857   58.4384 C.ar    1  ZINC000489986384   -0.1500
     21 N21       -11.3652    2.8484   60.1017 N.am    1  ZINC000489986384   -0.7300
     22 C22       -10.8725    4.0974   59.5158 C.3     1  ZINC000489986384    0.1300
     23 C23        -9.4703    4.3937   60.0515 C.3     1  ZINC000489986384   -0.0600
     24 H24        -8.8113    3.5544   59.8288 H       1  ZINC000489986384    0.0900
     25 C25        -8.9268    5.6594   59.3857 C.3     1  ZINC000489986384    0.0800
     26 O26        -8.7598    5.4270   57.9856 O.3     1  ZINC000489986384   -0.5700
     27 C27        -9.5354    4.5991   61.5430 C.ar    1  ZINC000489986384   -0.0700
     28 C28        -8.4680    4.2280   62.3391 C.ar    1  ZINC000489986384   -0.1100
     29 C29        -8.5278    4.4164   63.7073 C.ar    1  ZINC000489986384   -0.1200
     30 C30        -9.6549    4.9762   64.2793 C.ar    1  ZINC000489986384   -0.1200
     31 C31       -10.7220    5.3481   63.4832 C.ar    1  ZINC000489986384   -0.1200
     32 C32       -10.6605    5.1637   62.1145 C.ar    1  ZINC000489986384   -0.1100
     33 H33       -12.3440    0.5709   60.7848 H       1  ZINC000489986384    0.1200
     34 H34       -11.5880   -0.3482   59.4612 H       1  ZINC000489986384    0.1200
     35 H35       -11.4334    2.0076   62.8276 H       1  ZINC000489986384    0.1200
     36 H36       -10.5368    2.4121   65.0799 H       1  ZINC000489986384    0.1300
     37 H37        -8.7496    0.9854   65.9818 H       1  ZINC000489986384    0.1300
     38 H38        -7.8397   -0.8521   64.6557 H       1  ZINC000489986384    0.1300
     39 H39       -10.4710   -2.6212   59.6400 H       1  ZINC000489986384    0.0800
     40 H40        -9.4748   -1.3753   58.8503 H       1  ZINC000489986384    0.1000
     41 H41        -9.7848   -3.2981   57.5443 H       1  ZINC000489986384    0.1300
     42 H42        -8.8182   -3.9715   55.3830 H       1  ZINC000489986384    0.1300
     43 H43        -6.3930   -4.3378   55.1780 H       1  ZINC000489986384    0.1200
     44 H44        -4.9288   -4.0313   57.1326 H       1  ZINC000489986384    0.1300
     45 H45        -5.8867   -3.3514   59.2956 H       1  ZINC000489986384    0.1300
     46 H46       -12.0227    2.8732   60.8144 H       1  ZINC000489986384    0.4000
     47 H47       -10.8337    3.9995   58.4309 H       1  ZINC000489986384    0.0800
     48 H48       -11.5435    4.9138   59.7831 H       1  ZINC000489986384    0.0800
     49 H49        -9.6288    6.4795   59.5366 H       1  ZINC000489986384    0.0500
     50 H50        -7.9650    5.9185   59.8282 H       1  ZINC000489986384    0.0500
     51 H51        -8.1462    4.7094   57.7764 H       1  ZINC000489986384    0.3800
     52 H52        -7.5875    3.7907   61.8921 H       1  ZINC000489986384    0.1200
     53 H53        -7.6941    4.1259   64.3293 H       1  ZINC000489986384    0.1200
     54 H54        -9.7018    5.1228   65.3483 H       1  ZINC000489986384    0.1200
     55 H55       -11.6026    5.7852   63.9301 H       1  ZINC000489986384    0.1200
     56 H56       -11.4942    5.4542   61.4925 H       1  ZINC000489986384    0.1200
@<TRIPOS>BOND
     1     1     2    2
     2     2     3    1
     3     2    21   am
     4     3     4    1
     5     3    33    1
     6     3    34    1
     7     4    12    1
     8     4     5    1
     9     5    10   ar
    10     5     6   ar
    11     6     7   ar
    12     6    35    1
    13     7     8   ar
    14     7    36    1
    15     8     9   ar
    16     8    37    1
    17     9    10   ar
    18     9    38    1
    19    10    11    1
    20    11    12    2
    21    12    13    1
    22    13    14    1
    23    13    39    1
    24    13    40    1
    25    14    15    1
    26    15    20   ar
    27    15    16   ar
    28    16    17   ar
    29    16    41    1
    30    17    18   ar
    31    17    42    1
    32    18    19   ar
    33    18    43    1
    34    19    20   ar
    35    19    44    1
    36    20    45    1
    37    21    22    1
    38    21    46    1
    39    22    23    1
    40    22    47    1
    41    22    48    1
    42    23    24    1
    43    23    25    1
    44    23    27    1
    45    25    26    1
    46    25    49    1
    47    25    50    1
    48    26    51    1
    49    27    32   ar
    50    27    28   ar
    51    28    29   ar
    52    28    52    1
    53    29    30   ar
    54    29    53    1
    55    30    31   ar
    56    30    54    1
    57    31    32   ar
    58    31    55    1
    59    32    56    1
@<TRIPOS>SUBSTRUCTURE
     1 ZINC000489986384        1 TEMP              0 ****  ****    0 ROOT


##########                                Name:    ZINC000174621331
##########                DOCK_Rotatable_Bonds:                   8
##########                         Heavy_Atoms:                  25
##########                    Molecular_Weight:             366.438
##########                DOCK_Rotatable_Bonds:                   8
##########                       Formal_Charge:        -5.96046e-08
##########                     HBond_Acceptors:                   8
##########                        HBond_Donors:                   3
##########                         Heavy_Atoms:                  25
##########                          Grid_Score:          -33.853519
##########                     Grid_vdw_energy:          -31.950001
##########                      Grid_es_energy:           -1.903519
##########           Internal_energy_repulsive:           18.065790

@<TRIPOS>MOLECULE
ZINC000174621331
 47 48 1 0 0
SMALL
USER_CHARGES


@<TRIPOS>ATOM
      1 C1         -9.4304    4.3025   61.8359 C.3     1  ZINC000174621331    0.0300
      2 O2         -9.4017    2.9659   62.3407 O.3     1  ZINC000174621331   -0.3800
      3 C3        -10.5966    2.5755   63.0203 C.3     1  ZINC000174621331    0.0500
      4 C4        -10.4539    1.1352   63.5163 C.3     1  ZINC000174621331    0.2400
      5 H5        -11.3530    0.8478   64.0613 H       1  ZINC000174621331    0.1300
      6 N6        -10.2700    0.2403   62.3710 N.am    1  ZINC000174621331   -0.7200
      7 C7        -11.3428   -0.2909   61.7519 C.2     1  ZINC000174621331    0.5600
      8 O8        -12.4628   -0.0286   62.1446 O.2     1  ZINC000174621331   -0.5300
      9 C9        -11.1574   -1.1926   60.5951 C.ar    1  ZINC000174621331   -0.1600
     10 C10        -9.8856   -1.6700   60.2754 C.ar    1  ZINC000174621331   -0.0200
     11 C11        -9.7195   -2.5116   59.1947 C.ar    1  ZINC000174621331   -0.1100
     12 C12        -8.3469   -3.0281   58.8480 C.3     1  ZINC000174621331   -0.1200
     13 C13       -10.8103   -2.8828   58.4290 C.ar    1  ZINC000174621331    0.0400
     14 C14       -10.6214   -3.8027   57.2505 C.3     1  ZINC000174621331   -0.1600
     15 C15       -12.0741   -2.4133   58.7409 C.ar    1  ZINC000174621331   -0.6800
     16 S16       -13.4568   -2.8927   57.7595 S.o2    1  ZINC000174621331    2.7000
     17 N17       -13.2662   -2.1947   56.2699 N.am    1  ZINC000174621331   -1.2500
     18 O18       -13.3424   -4.2953   57.5630 O.2     1  ZINC000174621331   -0.9500
     19 O19       -14.5969   -2.2806   58.3465 O.2     1  ZINC000174621331   -0.9600
     20 C20       -12.2546   -1.5749   59.8212 C.ar    1  ZINC000174621331    0.0400
     21 C21        -9.2592    1.0345   64.4293 C.2     1  ZINC000174621331   -0.0200
     22 C22        -8.4857   -0.0534   64.5957 C.2     1  ZINC000174621331   -0.1900
     23 C23        -7.4886    0.2928   65.5363 C.2     1  ZINC000174621331   -0.2100
     24 C24        -7.7123    1.5716   65.8885 C.2     1  ZINC000174621331    0.0000
     25 C25        -6.8961    2.3707   66.8715 C.3     1  ZINC000174621331   -0.0800
     26 O26        -8.7825    2.0176   65.2104 O.3     1  ZINC000174621331   -0.1600
     27 H27       -10.2519    4.4056   61.1269 H       1  ZINC000174621331    0.0400
     28 H28        -9.5733    4.9997   62.6615 H       1  ZINC000174621331    0.0400
     29 H29        -8.4878    4.5217   61.3342 H       1  ZINC000174621331    0.0900
     30 H30       -10.7642    3.2374   63.8698 H       1  ZINC000174621331    0.0700
     31 H31       -11.4422    2.6418   62.3355 H       1  ZINC000174621331    0.0700
     32 H32        -9.3762    0.0300   62.0584 H       1  ZINC000174621331    0.4100
     33 H33        -9.0332   -1.3810   60.8723 H       1  ZINC000174621331    0.1400
     34 H34        -8.1678   -3.9657   59.3743 H       1  ZINC000174621331    0.0800
     35 H35        -8.2830   -3.1969   57.7730 H       1  ZINC000174621331    0.0800
     36 H36        -7.5970   -2.2953   59.1458 H       1  ZINC000174621331    0.0700
     37 H37       -10.7275   -4.8374   57.5765 H       1  ZINC000174621331    0.1100
     38 H38       -11.3732   -3.5815   56.4927 H       1  ZINC000174621331    0.0700
     39 H39        -9.6269   -3.6546   56.8297 H       1  ZINC000174621331    0.0900
     40 H40       -13.9298   -2.3402   55.5776 H       1  ZINC000174621331    0.4200
     41 H41       -12.4909   -1.6404   56.0897 H       1  ZINC000174621331    0.4200
     42 H42       -13.2416   -1.2095   60.0638 H       1  ZINC000174621331    0.1600
     43 H43        -8.6042   -1.0083   64.1052 H       1  ZINC000174621331    0.1500
     44 H44        -6.6991   -0.3469   65.9021 H       1  ZINC000174621331    0.1500
     45 H45        -6.0896    2.8804   66.3446 H       1  ZINC000174621331    0.0800
     46 H46        -7.5342    3.1076   67.3592 H       1  ZINC000174621331    0.0800
     47 H47        -6.4743    1.7020   67.6219 H       1  ZINC000174621331    0.0900
@<TRIPOS>BOND
     1     1     2    1
     2     1    27    1
     3     1    28    1
     4     1    29    1
     5     2     3    1
     6     3     4    1
     7     3    30    1
     8     3    31    1
     9     4     5    1
    10     4     6    1
    11     4    21    1
    12     6     7   am
    13     6    32    1
    14     7     8    2
    15     7     9    1
    16     9    20   ar
    17     9    10   ar
    18    10    11   ar
    19    10    33    1
    20    11    12    1
    21    11    13   ar
    22    12    34    1
    23    12    35    1
    24    12    36    1
    25    13    14    1
    26    13    15   ar
    27    14    37    1
    28    14    38    1
    29    14    39    1
    30    15    16    1
    31    15    20   ar
    32    16    17   am
    33    16    18    2
    34    16    19    2
    35    17    40    1
    36    17    41    1
    37    20    42    1
    38    21    26    1
    39    21    22    2
    40    22    23    1
    41    22    43    1
    42    23    24    2
    43    23    44    1
    44    24    25    1
    45    24    26    1
    46    25    45    1
    47    25    46    1
    48    25    47    1
@<TRIPOS>SUBSTRUCTURE
     1 ZINC000174621331        1 TEMP              0 ****  ****    0 ROOT


##########                                Name:    ZINC001282645012
##########                DOCK_Rotatable_Bonds:                   9
##########                         Heavy_Atoms:                  27
##########                    Molecular_Weight:             372.511
##########                DOCK_Rotatable_Bonds:                   9
##########                       Formal_Charge:          -0.0200004
##########                     HBond_Acceptors:                   6
##########                        HBond_Donors:                   1
##########                         Heavy_Atoms:                  27
##########                          Grid_Score:          -33.818054
##########                     Grid_vdw_energy:          -33.984558
##########                      Grid_es_energy:            0.166503
##########           Internal_energy_repulsive:           33.123043

@<TRIPOS>MOLECULE
ZINC001282645012
 59 61 1 0 0
SMALL
USER_CHARGES


@<TRIPOS>ATOM
      1 C1         -8.5398   -0.0791   64.9801 C.2     1  ZINC001282645012   -0.1900
      2 C2         -8.7133    0.7828   64.0090 C.2     1  ZINC001282645012   -0.1300
      3 C3         -9.4976    2.0461   64.2539 C.3     1  ZINC001282645012   -0.0500
      4 C4        -10.9242    1.6871   64.6745 C.3     1  ZINC001282645012   -0.1500
      5 C5         -8.8266    2.8556   65.3654 C.3     1  ZINC001282645012   -0.1400
      6 C6         -9.5377    2.8656   62.9898 C.2     1  ZINC001282645012    0.5500
      7 O7         -9.1867    4.0263   63.0083 O.2     1  ZINC001282645012   -0.5300
      8 N8         -9.9638    2.3086   61.8388 N.am    1  ZINC001282645012   -0.6300
      9 C9        -10.1018    2.8875   60.4593 C.3     1  ZINC001282645012    0.1200
     10 H10        -9.8193    3.9348   60.3528 H       1  ZINC001282645012    0.1300
     11 C11       -11.5921    2.5577   60.1447 C.3     1  ZINC001282645012   -0.1300
     12 C12       -11.8271    1.2159   60.8811 C.3     1  ZINC001282645012   -0.1300
     13 C13       -10.4406    0.9158   61.5389 C.3     1  ZINC001282645012    0.1200
     14 H14       -10.4601    0.2282   62.3845 H       1  ZINC001282645012    0.1200
     15 C15        -9.5126    0.5023   60.3572 C.3     1  ZINC001282645012    0.1300
     16 H16        -8.5719    0.0980   60.7309 H       1  ZINC001282645012    0.1000
     17 N17       -10.1827   -0.4709   59.4911 N.am    1  ZINC001282645012   -0.7100
     18 C18       -10.2534   -1.7652   59.8602 C.2     1  ZINC001282645012    0.5100
     19 O19        -9.7611   -2.1246   60.9086 O.2     1  ZINC001282645012   -0.5100
     20 C20       -10.9443   -2.7659   58.9700 C.3     1  ZINC001282645012    0.1200
     21 H21       -11.3527   -3.5726   59.5788 H       1  ZINC001282645012    0.1300
     22 C22       -12.0789   -2.0753   58.2107 C.3     1  ZINC001282645012   -0.1100
     23 C23       -13.2579   -3.0399   58.0675 C.3     1  ZINC001282645012   -0.1000
     24 C24       -14.1164   -2.9874   59.3328 C.3     1  ZINC001282645012   -0.1500
     25 C25       -14.1047   -2.6344   56.8595 C.3     1  ZINC001282645012   -0.1500
     26 N26        -9.9804   -3.3159   58.0136 N.pl3   1  ZINC001282645012   -0.4500
     27 C27        -8.6733   -3.6321   58.2685 C.2     1  ZINC001282645012   -0.0600
     28 C28        -8.1553   -4.1046   57.1188 C.2     1  ZINC001282645012   -0.0200
     29 N29        -9.1198   -4.0777   56.1872 N.2     1  ZINC001282645012   -0.4900
     30 C30       -10.2173   -3.6112   56.7173 C.2     1  ZINC001282645012    0.1900
     31 C31        -9.2596    1.8756   59.6252 C.3     1  ZINC001282645012   -0.1400
     32 H32        -8.9589    0.1156   65.9563 H       1  ZINC001282645012    0.1000
     33 H33        -7.9815   -0.9866   64.8034 H       1  ZINC001282645012    0.1000
     34 H34        -8.2943    0.5881   63.0328 H       1  ZINC001282645012    0.1100
     35 H35       -10.8953    1.0944   65.5888 H       1  ZINC001282645012    0.0700
     36 H36       -11.4915    2.6009   64.8517 H       1  ZINC001282645012    0.0700
     37 H37       -11.4023    1.1105   63.8827 H       1  ZINC001282645012    0.0600
     38 H38        -7.8103    3.1112   65.0658 H       1  ZINC001282645012    0.0600
     39 H39        -9.3940    3.7693   65.5426 H       1  ZINC001282645012    0.0700
     40 H40        -8.7976    2.2628   66.2796 H       1  ZINC001282645012    0.0700
     41 H41       -12.2486    3.3328   60.5401 H       1  ZINC001282645012    0.0800
     42 H42       -11.7405    2.4379   59.0716 H       1  ZINC001282645012    0.0800
     43 H43       -12.6002    1.3256   61.6416 H       1  ZINC001282645012    0.0700
     44 H44       -12.0922    0.4307   60.1731 H       1  ZINC001282645012    0.0800
     45 H45       -10.5754   -0.1837   58.6519 H       1  ZINC001282645012    0.4000
     46 H46       -12.3983   -1.1902   58.7610 H       1  ZINC001282645012    0.0900
     47 H47       -11.7279   -1.7812   57.2216 H       1  ZINC001282645012    0.0800
     48 H48       -12.8829   -4.0533   57.9246 H       1  ZINC001282645012    0.0700
     49 H49       -14.4914   -1.9739   59.4758 H       1  ZINC001282645012    0.0600
     50 H50       -14.9563   -3.6746   59.2308 H       1  ZINC001282645012    0.0600
     51 H51       -13.5131   -3.2762   60.1935 H       1  ZINC001282645012    0.0500
     52 H52       -13.5185   -2.7537   55.9483 H       1  ZINC001282645012    0.0600
     53 H53       -14.9902   -3.2678   56.8074 H       1  ZINC001282645012    0.0600
     54 H54       -14.4087   -1.5927   56.9620 H       1  ZINC001282645012    0.0600
     55 H55        -8.1566   -3.5232   59.2107 H       1  ZINC001282645012    0.1700
     56 H56        -7.1410   -4.4455   56.9724 H       1  ZINC001282645012    0.1700
     57 H57       -11.1573   -3.4771   56.2028 H       1  ZINC001282645012    0.2000
     58 H58        -9.6383    1.8417   58.6037 H       1  ZINC001282645012    0.0900
     59 H59        -8.1989    2.1260   59.6344 H       1  ZINC001282645012    0.0900
@<TRIPOS>BOND
     1     1     2    2
     2     1    32    1
     3     1    33    1
     4     2     3    1
     5     2    34    1
     6     3     4    1
     7     3     5    1
     8     3     6    1
     9     4    35    1
    10     4    36    1
    11     4    37    1
    12     5    38    1
    13     5    39    1
    14     5    40    1
    15     6     7    2
    16     6     8   am
    17     8    13    1
    18     8     9    1
    19     9    10    1
    20     9    31    1
    21     9    11    1
    22    11    12    1
    23    11    41    1
    24    11    42    1
    25    12    13    1
    26    12    43    1
    27    12    44    1
    28    13    14    1
    29    13    15    1
    30    15    16    1
    31    15    17    1
    32    15    31    1
    33    17    18   am
    34    17    45    1
    35    18    19    2
    36    18    20    1
    37    20    21    1
    38    20    22    1
    39    20    26    1
    40    22    23    1
    41    22    46    1
    42    22    47    1
    43    23    24    1
    44    23    25    1
    45    23    48    1
    46    24    49    1
    47    24    50    1
    48    24    51    1
    49    25    52    1
    50    25    53    1
    51    25    54    1
    52    26    30    1
    53    26    27    1
    54    27    28    2
    55    27    55    1
    56    28    29    1
    57    28    56    1
    58    29    30    2
    59    30    57    1
    60    31    58    1
    61    31    59    1
@<TRIPOS>SUBSTRUCTURE
     1 ZINC001282645012        1 TEMP              0 ****  ****    0 ROOT


##########                                Name:    ZINC000459459628
##########                DOCK_Rotatable_Bonds:                   8
##########                         Heavy_Atoms:                  27
##########                    Molecular_Weight:             377.366
##########                DOCK_Rotatable_Bonds:                   8
##########                       Formal_Charge:         -0.00999984
##########                     HBond_Acceptors:                   8
##########                        HBond_Donors:                   1
##########                         Heavy_Atoms:                  27
##########                          Grid_Score:          -33.817253
##########                     Grid_vdw_energy:          -32.020771
##########                      Grid_es_energy:           -1.796480
##########           Internal_energy_repulsive:           19.109280

@<TRIPOS>MOLECULE
ZINC000459459628
 45 46 1 0 0
SMALL
USER_CHARGES


@<TRIPOS>ATOM
      1 C1        -12.5789   -1.0812   57.9393 C.3     1  ZINC000459459628   -0.1600
      2 C2        -11.7540   -1.3617   59.1970 C.3     1  ZINC000459459628    0.1600
      3 H3        -10.8081   -0.8232   59.1387 H       1  ZINC000459459628    0.1100
      4 C4        -11.4802   -2.8633   59.3030 C.3     1  ZINC000459459628   -0.0900
      5 C5        -10.2488   -3.2069   58.5051 C.ar    1  ZINC000459459628   -0.0500
      6 C6        -10.3610   -3.5283   57.1655 C.ar    1  ZINC000459459628   -0.1200
      7 C7         -9.2321   -3.8438   56.4322 C.ar    1  ZINC000459459628   -0.0900
      8 C8         -7.9902   -3.8381   57.0379 C.ar    1  ZINC000459459628   -0.1600
      9 C9         -7.8765   -3.5158   58.3799 C.ar    1  ZINC000459459628    0.1000
     10 F10        -6.6628   -3.5100   58.9733 F       1  ZINC000459459628   -0.1400
     11 C11        -9.0069   -3.1950   59.1119 C.ar    1  ZINC000459459628   -0.1500
     12 N12       -12.4975   -0.9163   60.3781 N.am    1  ZINC000459459628   -0.6200
     13 C13       -13.9210   -1.2363   60.5112 C.3     1  ZINC000459459628    0.0700
     14 C14       -11.8721   -0.2122   61.3421 C.2     1  ZINC000459459628    0.7100
     15 O15       -12.4894    0.1588   62.3217 O.2     1  ZINC000459459628   -0.5700
     16 N16       -10.5621    0.0808   61.2202 N.am    1  ZINC000459459628   -0.6800
     17 C17        -9.9115    0.8132   62.2230 C.ar    1  ZINC000459459628    0.1500
     18 C18        -9.3117    0.1557   63.2811 C.ar    1  ZINC000459459628   -0.0400
     19 C19        -8.6637    0.8896   64.2784 C.ar    1  ZINC000459459628   -0.0300
     20 C20        -8.0405    0.2138   65.3763 C.1     1  ZINC000459459628    0.2600
     21 N21        -7.5461   -0.3223   66.2473 N.1     1  ZINC000459459628   -0.4100
     22 C22        -8.6249    2.2840   64.2017 C.ar    1  ZINC000459459628   -0.0500
     23 C23        -9.2253    2.9338   63.1442 C.ar    1  ZINC000459459628   -0.1700
     24 C24        -9.8639    2.2060   62.1505 C.ar    1  ZINC000459459628    0.1100
     25 O25       -10.4538    2.8511   61.1109 O.3     1  ZINC000459459628   -0.3200
     26 C26        -9.5888    3.4724   60.1580 C.3     1  ZINC000459459628    0.4100
     27 F27       -10.3336    3.8722   59.0433 F       1  ZINC000459459628   -0.1900
     28 F28        -8.9820    4.5911   60.7391 F       1  ZINC000459459628   -0.1900
     29 H29       -13.5248   -1.6198   57.9976 H       1  ZINC000459459628    0.0600
     30 H30       -12.7740   -0.0115   57.8639 H       1  ZINC000459459628    0.0600
     31 H31       -12.0257   -1.4126   57.0606 H       1  ZINC000459459628    0.0700
     32 H32       -11.3226   -3.1310   60.3478 H       1  ZINC000459459628    0.0800
     33 H33       -12.3334   -3.4167   58.9108 H       1  ZINC000459459628    0.0900
     34 H34       -11.3313   -3.5333   56.6913 H       1  ZINC000459459628    0.1300
     35 H35        -9.3210   -4.0951   55.3856 H       1  ZINC000459459628    0.1300
     36 H36        -7.1086   -4.0852   56.4651 H       1  ZINC000459459628    0.1300
     37 H37        -8.9194   -2.9431   60.1584 H       1  ZINC000459459628    0.1300
     38 H38       -14.0322   -2.1905   61.0262 H       1  ZINC000459459628    0.0600
     39 H39       -14.4172   -0.4536   61.0850 H       1  ZINC000459459628    0.0700
     40 H40       -14.3725   -1.3029   59.5214 H       1  ZINC000459459628    0.0800
     41 H41       -10.0696   -0.2152   60.4388 H       1  ZINC000459459628    0.4100
     42 H42        -9.3442   -0.9224   63.3371 H       1  ZINC000459459628    0.1600
     43 H43        -8.1247    2.8532   64.9712 H       1  ZINC000459459628    0.1400
     44 H44        -9.1948    4.0118   63.0870 H       1  ZINC000459459628    0.1500
     45 H45        -8.8216    2.7633   59.8472 H       1  ZINC000459459628    0.1900
@<TRIPOS>BOND
     1     1     2    1
     2     1    29    1
     3     1    30    1
     4     1    31    1
     5     2     3    1
     6     2     4    1
     7     2    12    1
     8     4     5    1
     9     4    32    1
    10     4    33    1
    11     5    11   ar
    12     5     6   ar
    13     6     7   ar
    14     6    34    1
    15     7     8   ar
    16     7    35    1
    17     8     9   ar
    18     8    36    1
    19     9    10    1
    20     9    11   ar
    21    11    37    1
    22    12    13    1
    23    12    14   am
    24    13    38    1
    25    13    39    1
    26    13    40    1
    27    14    15    2
    28    14    16   am
    29    16    17    1
    30    16    41    1
    31    17    24   ar
    32    17    18   ar
    33    18    19   ar
    34    18    42    1
    35    19    20    1
    36    19    22   ar
    37    20    21    3
    38    22    23   ar
    39    22    43    1
    40    23    24   ar
    41    23    44    1
    42    24    25    1
    43    25    26    1
    44    26    27    1
    45    26    28    1
    46    26    45    1
@<TRIPOS>SUBSTRUCTURE
     1 ZINC000459459628        1 TEMP              0 ****  ****    0 ROOT


##########                                Name:    ZINC000503413572
##########                DOCK_Rotatable_Bonds:                   7
##########                         Heavy_Atoms:                  26
##########                    Molecular_Weight:             355.375
##########                DOCK_Rotatable_Bonds:                   7
##########                       Formal_Charge:        -1.71363e-07
##########                     HBond_Acceptors:                   9
##########                        HBond_Donors:                   1
##########                         Heavy_Atoms:                  26
##########                          Grid_Score:          -33.770878
##########                     Grid_vdw_energy:          -31.607824
##########                      Grid_es_energy:           -2.163055
##########           Internal_energy_repulsive:            9.977877

@<TRIPOS>MOLECULE
ZINC000503413572
 44 47 1 0 0
SMALL
USER_CHARGES


@<TRIPOS>ATOM
      1 C1         -7.9611   -0.1413   65.8291 C.3     1  ZINC000503413572   -0.1200
      2 C2         -7.4972    1.2896   65.9200 C.ar    1  ZINC000503413572   -0.0200
      3 C3         -6.3726    1.6058   66.6562 C.ar    1  ZINC000503413572   -0.1400
      4 C4         -5.9456    2.9208   66.7397 C.ar    1  ZINC000503413572    0.1300
      5 F5         -4.8448    3.2282   67.4601 F       1  ZINC000503413572   -0.1300
      6 C6         -6.6452    3.9205   66.0853 C.ar    1  ZINC000503413572   -0.1400
      7 C7         -7.7705    3.6080   65.3479 C.ar    1  ZINC000503413572   -0.0700
      8 C8         -8.1970    2.2901   65.2589 C.ar    1  ZINC000503413572    0.1000
      9 N9         -9.3394    1.9707   64.5100 N.pl3   1  ZINC000503413572   -0.3100
     10 C10        -9.3939    1.1630   63.4290 C.2     1  ZINC000503413572    0.1100
     11 C11       -10.6977    1.1364   63.0213 C.2     1  ZINC000503413572   -0.1000
     12 C12       -11.2263    0.3790   61.8712 C.2     1  ZINC000503413572    0.6100
     13 O13       -12.3319    0.6319   61.4331 O.2     1  ZINC000503413572   -0.5300
     14 N14       -10.4836   -0.5934   61.3060 N.am    1  ZINC000503413572   -0.7200
     15 C15       -11.0078   -1.3445   60.1627 C.3     1  ZINC000503413572    0.1100
     16 C16       -10.4016   -2.7492   60.1540 C.3     1  ZINC000503413572    0.1000
     17 N17       -10.0492   -3.1205   58.7813 N.pl3   1  ZINC000503413572   -0.4700
     18 C18        -8.8094   -3.3786   58.2996 C.2     1  ZINC000503413572    0.1500
     19 N19        -8.9375   -3.6690   57.0335 N.2     1  ZINC000503413572   -0.2900
     20 N20       -10.1776   -3.6078   56.6986 N.2     1  ZINC000503413572   -0.2900
     21 C21       -10.8976   -3.2812   57.7372 C.2     1  ZINC000503413572    0.2100
     22 C22       -12.3940   -3.1053   57.7669 C.3     1  ZINC000503413572   -0.1000
     23 C23       -12.9404   -1.6809   57.6521 C.3     1  ZINC000503413572   -0.1500
     24 C24       -13.0776   -2.6499   56.4761 C.3     1  ZINC000503413572   -0.1600
     25 N25       -11.4173    1.9172   63.8455 N.2     1  ZINC000503413572   -0.2000
     26 N26       -10.6457    2.4237   64.7430 N.2     1  ZINC000503413572   -0.0400
     27 H27        -7.5596   -0.5966   64.9237 H       1  ZINC000503413572    0.0900
     28 H28        -7.6089   -0.6935   66.7004 H       1  ZINC000503413572    0.0800
     29 H29        -9.0503   -0.1688   65.7974 H       1  ZINC000503413572    0.0700
     30 H30        -5.8260    0.8274   67.1676 H       1  ZINC000503413572    0.1500
     31 H31        -6.3110    4.9454   66.1517 H       1  ZINC000503413572    0.1500
     32 H32        -8.3162    4.3881   64.8379 H       1  ZINC000503413572    0.1500
     33 H33        -8.5662    0.6392   62.9740 H       1  ZINC000503413572    0.2100
     34 H34        -9.6020   -0.7960   61.6563 H       1  ZINC000503413572    0.4100
     35 H35       -12.0925   -1.4173   60.2422 H       1  ZINC000503413572    0.0800
     36 H36       -10.7451   -0.8297   59.2384 H       1  ZINC000503413572    0.0800
     37 H37        -9.5061   -2.7623   60.7753 H       1  ZINC000503413572    0.1100
     38 H38       -11.1275   -3.4607   60.5478 H       1  ZINC000503413572    0.1100
     39 H39        -7.8862   -3.3488   58.8591 H       1  ZINC000503413572    0.2200
     40 H40       -12.9367   -3.8030   58.4047 H       1  ZINC000503413572    0.1200
     41 H41       -13.8427   -1.4412   58.2145 H       1  ZINC000503413572    0.1100
     42 H42       -12.2174   -0.8708   57.5551 H       1  ZINC000503413572    0.1100
     43 H43       -12.4449   -2.4774   55.6053 H       1  ZINC000503413572    0.1000
     44 H44       -14.0701   -3.0478   56.2649 H       1  ZINC000503413572    0.1100
@<TRIPOS>BOND
     1     1     2    1
     2     1    27    1
     3     1    28    1
     4     1    29    1
     5     2     8   ar
     6     2     3   ar
     7     3     4   ar
     8     3    30    1
     9     4     5    1
    10     4     6   ar
    11     6     7   ar
    12     6    31    1
    13     7     8   ar
    14     7    32    1
    15     8     9    1
    16     9    26    1
    17     9    10    1
    18    10    11    2
    19    10    33    1
    20    11    12    1
    21    11    25    1
    22    12    13    2
    23    12    14   am
    24    14    15    1
    25    14    34    1
    26    15    16    1
    27    15    35    1
    28    15    36    1
    29    16    17    1
    30    16    37    1
    31    16    38    1
    32    17    21    1
    33    17    18    1
    34    18    19    2
    35    18    39    1
    36    19    20    1
    37    20    21    2
    38    21    22    1
    39    22    24    1
    40    22    23    1
    41    22    40    1
    42    23    24    1
    43    23    41    1
    44    23    42    1
    45    24    43    1
    46    24    44    1
    47    25    26    2
@<TRIPOS>SUBSTRUCTURE
     1 ZINC000503413572        1 TEMP              0 ****  ****    0 ROOT


##########                                Name:    ZINC000512699033
##########                DOCK_Rotatable_Bonds:                   9
##########                         Heavy_Atoms:                  30
##########                    Molecular_Weight:              405.54
##########                DOCK_Rotatable_Bonds:                   9
##########                       Formal_Charge:           0.0199988
##########                     HBond_Acceptors:                   5
##########                        HBond_Donors:                   2
##########                         Heavy_Atoms:                  30
##########                          Grid_Score:          -33.749012
##########                     Grid_vdw_energy:          -33.762199
##########                      Grid_es_energy:            0.013188
##########           Internal_energy_repulsive:           11.674854

@<TRIPOS>MOLECULE
ZINC000512699033
 61 64 1 0 0
SMALL
USER_CHARGES


@<TRIPOS>ATOM
      1 O1         -9.4742    3.5658   62.4898 O.2     1  ZINC000512699033   -0.5100
      2 C2        -10.4980    3.1095   62.0263 C.2     1  ZINC000512699033    0.5200
      3 C3        -11.4130    3.9870   61.2117 C.3     1  ZINC000512699033   -0.1500
      4 C4        -11.3249    3.5866   59.7377 C.3     1  ZINC000512699033    0.1300
      5 N5        -10.1969    4.2793   59.1100 N.am    1  ZINC000512699033   -0.7300
      6 C6         -9.7049    3.8386   57.9352 C.2     1  ZINC000512699033    0.5200
      7 O7        -10.1949    2.8678   57.3984 O.2     1  ZINC000512699033   -0.5300
      8 C8         -8.5457    4.5523   57.2885 C.3     1  ZINC000512699033   -0.1100
      9 C9         -7.2426    3.8329   57.6421 C.3     1  ZINC000512699033   -0.1100
     10 C10        -6.0657    4.5575   56.9856 C.3     1  ZINC000512699033   -0.1200
     11 C11        -6.2511    4.5597   55.4670 C.3     1  ZINC000512699033   -0.1200
     12 C12        -7.5544    5.2792   55.1134 C.3     1  ZINC000512699033   -0.1200
     13 C13        -8.7312    4.5546   55.7698 C.3     1  ZINC000512699033   -0.1000
     14 N14       -10.8144    1.8162   62.2352 N.am    1  ZINC000512699033   -0.6600
     15 C15        -9.9647    1.0013   62.9916 C.ar    1  ZINC000512699033    0.1700
     16 C16        -9.7773    1.2569   64.3435 C.ar    1  ZINC000512699033   -0.1400
     17 C17        -8.9383    0.4503   65.0875 C.ar    1  ZINC000512699033   -0.1000
     18 C18        -8.2851   -0.6102   64.4873 C.ar    1  ZINC000512699033   -0.1400
     19 C19        -8.4696   -0.8674   63.1410 C.ar    1  ZINC000512699033   -0.0900
     20 C20        -9.3115   -0.0682   62.3930 C.ar    1  ZINC000512699033   -0.1200
     21 C21        -9.5121   -0.3492   60.9261 C.3     1  ZINC000512699033    0.0900
     22 N22       -10.5058   -1.4190   60.7638 N.3     1  ZINC000512699033   -0.4700
     23 C23       -11.8705   -0.8611   60.6447 C.3     1  ZINC000512699033    0.0500
     24 C24       -12.5787   -1.8913   59.7354 C.3     1  ZINC000512699033   -0.0900
     25 C25       -11.4292   -2.5000   58.9572 C.ar    1  ZINC000512699033   -0.1400
     26 C26       -11.4037   -3.2561   57.8045 C.ar    1  ZINC000512699033   -0.0800
     27 C27       -10.1967   -3.6921   57.2878 C.ar    1  ZINC000512699033   -0.1400
     28 C28        -9.0154   -3.3680   57.9293 C.ar    1  ZINC000512699033   -0.0900
     29 C29        -9.0357   -2.6137   59.0841 C.ar    1  ZINC000512699033   -0.1400
     30 C30       -10.2476   -2.1732   59.6125 C.ar    1  ZINC000512699033    0.0900
     31 H31       -12.4385    3.8656   61.5606 H       1  ZINC000512699033    0.1100
     32 H32       -11.1121    5.0287   61.3238 H       1  ZINC000512699033    0.1000
     33 H33       -11.1773    2.5093   59.6620 H       1  ZINC000512699033    0.0800
     34 H34       -12.2490    3.8632   59.2303 H       1  ZINC000512699033    0.0800
     35 H35        -9.8042    5.0551   59.5399 H       1  ZINC000512699033    0.4000
     36 H36        -8.5037    5.5795   57.6510 H       1  ZINC000512699033    0.1000
     37 H37        -7.1104    3.8313   58.7241 H       1  ZINC000512699033    0.0700
     38 H38        -7.2847    2.8058   57.2797 H       1  ZINC000512699033    0.0700
     39 H39        -6.0235    5.5846   57.3481 H       1  ZINC000512699033    0.0600
     40 H40        -5.1373    4.0450   57.2375 H       1  ZINC000512699033    0.0700
     41 H41        -5.4128    5.0759   54.9993 H       1  ZINC000512699033    0.0600
     42 H42        -6.2934    3.5326   55.1046 H       1  ZINC000512699033    0.0600
     43 H43        -7.5123    6.3062   55.4758 H       1  ZINC000512699033    0.0600
     44 H44        -7.6865    5.2807   54.0314 H       1  ZINC000512699033    0.0700
     45 H45        -8.7733    3.5274   55.4075 H       1  ZINC000512699033    0.0700
     46 H46        -9.6597    5.0671   55.5180 H       1  ZINC000512699033    0.0700
     47 H47       -11.6311    1.4502   61.8611 H       1  ZINC000512699033    0.4200
     48 H48       -10.2868    2.0856   64.8127 H       1  ZINC000512699033    0.1500
     49 H49        -8.7921    0.6486   66.1390 H       1  ZINC000512699033    0.1300
     50 H50        -7.6290   -1.2389   65.0711 H       1  ZINC000512699033    0.1200
     51 H51        -7.9580   -1.6965   62.6751 H       1  ZINC000512699033    0.1200
     52 H52        -9.8656    0.5537   60.4282 H       1  ZINC000512699033    0.0600
     53 H53        -8.5663   -0.6617   60.4834 H       1  ZINC000512699033    0.0900
     54 H54       -12.3537   -0.8098   61.6204 H       1  ZINC000512699033    0.1000
     55 H55       -11.8469    0.1206   60.1716 H       1  ZINC000512699033    0.0600
     56 H56       -13.0849   -2.6498   60.3326 H       1  ZINC000512699033    0.0900
     57 H57       -13.2799   -1.3958   59.0638 H       1  ZINC000512699033    0.0800
     58 H58       -12.3271   -3.5085   57.3045 H       1  ZINC000512699033    0.1200
     59 H59       -10.1771   -4.2850   56.3854 H       1  ZINC000512699033    0.1300
     60 H60        -8.0732   -3.7072   57.5248 H       1  ZINC000512699033    0.1300
     61 H61        -8.1095   -2.3642   59.5806 H       1  ZINC000512699033    0.1200
@<TRIPOS>BOND
     1     1     2    2
     2     2     3    1
     3     2    14   am
     4     3     4    1
     5     3    31    1
     6     3    32    1
     7     4     5    1
     8     4    33    1
     9     4    34    1
    10     5     6   am
    11     5    35    1
    12     6     7    2
    13     6     8    1
    14     8    13    1
    15     8     9    1
    16     8    36    1
    17     9    10    1
    18     9    37    1
    19     9    38    1
    20    10    11    1
    21    10    39    1
    22    10    40    1
    23    11    12    1
    24    11    41    1
    25    11    42    1
    26    12    13    1
    27    12    43    1
    28    12    44    1
    29    13    45    1
    30    13    46    1
    31    14    15    1
    32    14    47    1
    33    15    20   ar
    34    15    16   ar
    35    16    17   ar
    36    16    48    1
    37    17    18   ar
    38    17    49    1
    39    18    19   ar
    40    18    50    1
    41    19    20   ar
    42    19    51    1
    43    20    21    1
    44    21    22    1
    45    21    52    1
    46    21    53    1
    47    22    30    1
    48    22    23    1
    49    23    24    1
    50    23    54    1
    51    23    55    1
    52    24    25    1
    53    24    56    1
    54    24    57    1
    55    25    30   ar
    56    25    26   ar
    57    26    27   ar
    58    26    58    1
    59    27    28   ar
    60    27    59    1
    61    28    29   ar
    62    28    60    1
    63    29    30   ar
    64    29    61    1
@<TRIPOS>SUBSTRUCTURE
     1 ZINC000512699033        1 TEMP              0 ****  ****    0 ROOT


##########                                Name:    ZINC000150894060
##########                DOCK_Rotatable_Bonds:                  10
##########                         Heavy_Atoms:                  27
##########                    Molecular_Weight:              366.42
##########                DOCK_Rotatable_Bonds:                  10
##########                       Formal_Charge:        -6.70552e-07
##########                     HBond_Acceptors:                   7
##########                        HBond_Donors:                   2
##########                         Heavy_Atoms:                  27
##########                          Grid_Score:          -33.723526
##########                     Grid_vdw_energy:          -33.757347
##########                      Grid_es_energy:            0.033822
##########           Internal_energy_repulsive:           13.619652

@<TRIPOS>MOLECULE
ZINC000150894060
 49 51 1 0 0
SMALL
USER_CHARGES


@<TRIPOS>ATOM
      1 C1         -9.0221    0.1524   62.9852 C.3     1  ZINC000150894060   -0.1000
      2 C2         -8.5281    0.6950   64.3016 C.2     1  ZINC000150894060   -0.0800
      3 C3         -8.7748    1.9356   64.8158 C.2     1  ZINC000150894060   -0.1000
      4 C4         -9.5743    2.9884   64.1808 C.2     1  ZINC000150894060    0.6100
      5 O5         -9.4610    4.1432   64.5475 O.2     1  ZINC000150894060   -0.5100
      6 N6        -10.4345    2.6769   63.1911 N.am    1  ZINC000150894060   -0.7200
      7 C7        -11.2319    3.7288   62.5556 C.3     1  ZINC000150894060    0.1200
      8 C8        -12.5866    3.1568   62.1331 C.3     1  ZINC000150894060   -0.1500
      9 C9        -12.5645    2.8471   60.6349 C.3     1  ZINC000150894060    0.1200
     10 N10       -11.9328    1.5437   60.4150 N.am    1  ZINC000150894060   -0.7300
     11 C11       -12.0293    0.9424   59.2128 C.2     1  ZINC000150894060    0.5600
     12 O12       -12.6392    1.4820   58.3104 O.2     1  ZINC000150894060   -0.5300
     13 C13       -11.3932   -0.3737   58.9913 C.ar    1  ZINC000150894060   -0.1300
     14 C14       -10.0903   -0.6060   59.4349 C.ar    1  ZINC000150894060   -0.0900
     15 C15        -9.5028   -1.8366   59.2256 C.ar    1  ZINC000150894060   -0.0900
     16 C16       -10.2019   -2.8392   58.5772 C.ar    1  ZINC000150894060   -0.0800
     17 C17        -9.5535   -4.1807   58.3515 C.3     1  ZINC000150894060    0.1700
     18 N18        -8.2758   -3.9951   57.6592 N.pl3   1  ZINC000150894060   -0.3700
     19 C19        -7.0818   -3.7652   58.2446 C.2     1  ZINC000150894060    0.0500
     20 C20        -6.1564   -3.6528   57.2636 C.2     1  ZINC000150894060   -0.2700
     21 C21        -6.8072   -3.8199   56.0369 C.2     1  ZINC000150894060    0.0400
     22 N22        -8.0766   -4.0312   56.2731 N.2     1  ZINC000150894060   -0.2900
     23 C23       -11.4939   -2.6156   58.1354 C.ar    1  ZINC000150894060   -0.1100
     24 C24       -12.0950   -1.3913   58.3430 C.ar    1  ZINC000150894060   -0.0600
     25 O25        -8.1542    2.0231   66.0106 O.3     1  ZINC000150894060   -0.1700
     26 C26        -7.5206    0.8716   66.2678 C.2     1  ZINC000150894060    0.0000
     27 C27        -7.7302    0.0209   65.2391 C.2     1  ZINC000150894060   -0.2300
     28 H28        -9.9863   -0.3343   63.1318 H       1  ZINC000150894060    0.0800
     29 H29        -9.1325    0.9705   62.2734 H       1  ZINC000150894060    0.0900
     30 H30        -8.3048   -0.5715   62.5984 H       1  ZINC000150894060    0.0700
     31 H31       -10.5256    1.7562   62.8996 H       1  ZINC000150894060    0.4100
     32 H32       -11.3861    4.5446   63.2617 H       1  ZINC000150894060    0.0800
     33 H33       -10.7057    4.1030   61.6774 H       1  ZINC000150894060    0.0800
     34 H34       -12.7843    2.2413   62.6906 H       1  ZINC000150894060    0.0800
     35 H35       -13.3697    3.8856   62.3419 H       1  ZINC000150894060    0.0800
     36 H36       -13.5853    2.8251   60.2534 H       1  ZINC000150894060    0.0800
     37 H37       -11.9980    3.6181   60.1128 H       1  ZINC000150894060    0.0800
     38 H38       -11.4450    1.1136   61.1347 H       1  ZINC000150894060    0.4000
     39 H39        -9.5432    0.1758   59.9405 H       1  ZINC000150894060    0.1300
     40 H40        -8.4947   -2.0176   59.5683 H       1  ZINC000150894060    0.1300
     41 H41        -9.3793   -4.6662   59.3117 H       1  ZINC000150894060    0.1100
     42 H42       -10.2093   -4.8035   57.7431 H       1  ZINC000150894060    0.1000
     43 H43        -6.8979   -3.6848   59.3057 H       1  ZINC000150894060    0.1700
     44 H44        -5.1018   -3.4665   57.4033 H       1  ZINC000150894060    0.1500
     45 H45        -6.3414   -3.7855   55.0631 H       1  ZINC000150894060    0.1800
     46 H46       -12.0343   -3.4024   57.6302 H       1  ZINC000150894060    0.1300
     47 H47       -13.1037   -1.2182   57.9980 H       1  ZINC000150894060    0.1400
     48 H48        -6.9410    0.6569   67.1536 H       1  ZINC000150894060    0.2100
     49 H49        -7.3497   -0.9862   65.1518 H       1  ZINC000150894060    0.1600
@<TRIPOS>BOND
     1     1     2    1
     2     1    28    1
     3     1    29    1
     4     1    30    1
     5     2    27    1
     6     2     3    2
     7     3     4    1
     8     3    25    1
     9     4     5    2
    10     4     6   am
    11     6     7    1
    12     6    31    1
    13     7     8    1
    14     7    32    1
    15     7    33    1
    16     8     9    1
    17     8    34    1
    18     8    35    1
    19     9    10    1
    20     9    36    1
    21     9    37    1
    22    10    11   am
    23    10    38    1
    24    11    12    2
    25    11    13    1
    26    13    24   ar
    27    13    14   ar
    28    14    15   ar
    29    14    39    1
    30    15    16   ar
    31    15    40    1
    32    16    17    1
    33    16    23   ar
    34    17    18    1
    35    17    41    1
    36    17    42    1
    37    18    22    1
    38    18    19    1
    39    19    20    2
    40    19    43    1
    41    20    21    1
    42    20    44    1
    43    21    22    2
    44    21    45    1
    45    23    24   ar
    46    23    46    1
    47    24    47    1
    48    25    26    1
    49    26    27    2
    50    26    48    1
    51    27    49    1
@<TRIPOS>SUBSTRUCTURE
     1 ZINC000150894060        1 TEMP              0 ****  ****    0 ROOT


##########                                Name:    ZINC000807524472
##########                DOCK_Rotatable_Bonds:                   9
##########                         Heavy_Atoms:                  28
##########                    Molecular_Weight:             410.534
##########                DOCK_Rotatable_Bonds:                   9
##########                       Formal_Charge:           0.0200006
##########                     HBond_Acceptors:                   8
##########                        HBond_Donors:                   0
##########                         Heavy_Atoms:                  28
##########                          Grid_Score:          -33.715256
##########                     Grid_vdw_energy:          -33.395691
##########                      Grid_es_energy:           -0.319564
##########           Internal_energy_repulsive:           15.994875

@<TRIPOS>MOLECULE
ZINC000807524472
 58 60 1 0 0
SMALL
USER_CHARGES


@<TRIPOS>ATOM
      1 C1         -5.8737   -3.9774   57.1227 C.3     1  ZINC000807524472   -0.1500
      2 C2         -7.0906   -4.5053   56.3601 C.3     1  ZINC000807524472    0.0600
      3 O3         -8.2429   -3.7364   56.7109 O.3     1  ZINC000807524472   -0.3800
      4 C4         -8.8630   -4.1429   57.9326 C.3     1  ZINC000807524472    0.0600
      5 C5         -8.6015   -3.0907   59.0121 C.3     1  ZINC000807524472    0.0700
      6 O6         -9.5044   -1.9692   58.8236 O.3     1  ZINC000807524472   -0.3500
      7 C7         -9.9685   -1.3638   59.9346 C.2     1  ZINC000807524472    0.5000
      8 O8         -9.5955   -1.7356   61.0299 O.2     1  ZINC000807524472   -0.4600
      9 C9        -10.9277   -0.2518   59.8214 C.ar    1  ZINC000807524472   -0.1200
     10 C10       -10.5418    1.0473   60.1629 C.ar    1  ZINC000807524472    0.0400
     11 C11       -11.4437    2.0830   60.0542 C.ar    1  ZINC000807524472   -0.7000
     12 S12       -10.9542    3.7199   60.4848 S.o2    1  ZINC000807524472    2.6900
     13 O13       -12.1433    4.4969   60.5250 O.2     1  ZINC000807524472   -0.9500
     14 O14       -10.0688    3.5965   61.5894 O.2     1  ZINC000807524472   -0.9500
     15 N15       -10.0529    4.3090   59.2267 N.am    1  ZINC000807524472   -0.9900
     16 C16        -8.6576    4.7202   59.4334 C.3     1  ZINC000807524472    0.1200
     17 C17        -7.7724    3.9885   58.4196 C.3     1  ZINC000807524472   -0.1400
     18 C18        -8.3011    4.2467   57.0068 C.3     1  ZINC000807524472   -0.1200
     19 C19        -9.7260    3.7018   56.8860 C.3     1  ZINC000807524472   -0.1400
     20 C20       -10.6315    4.4247   57.8810 C.3     1  ZINC000807524472    0.1200
     21 C21       -12.7338    1.8444   59.6077 C.ar    1  ZINC000807524472    0.0200
     22 C22       -13.1307    0.5675   59.2670 C.ar    1  ZINC000807524472   -0.1800
     23 C23       -12.2343   -0.4893   59.3642 C.ar    1  ZINC000807524472    0.2000
     24 N24       -12.6309   -1.7749   59.0216 N.3     1  ZINC000807524472   -0.4800
     25 C25       -13.8668   -2.1621   59.7488 C.3     1  ZINC000807524472    0.0400
     26 C26       -14.4330   -3.3229   58.8930 C.3     1  ZINC000807524472   -0.1200
     27 C27       -14.1195   -2.8716   57.4479 C.3     1  ZINC000807524472   -0.1300
     28 C28       -12.9657   -1.8608   57.5835 C.3     1  ZINC000807524472    0.0400
     29 H29        -6.0530   -4.0598   58.1948 H       1  ZINC000807524472    0.0600
     30 H30        -4.9948   -4.5638   56.8551 H       1  ZINC000807524472    0.0700
     31 H31        -5.7066   -2.9324   56.8616 H       1  ZINC000807524472    0.0700
     32 H32        -6.9114   -4.4228   55.2881 H       1  ZINC000807524472    0.0500
     33 H33        -7.2578   -5.5503   56.6213 H       1  ZINC000807524472    0.0500
     34 H34        -9.9371   -4.2458   57.7781 H       1  ZINC000807524472    0.0600
     35 H35        -8.4482   -5.0997   58.2498 H       1  ZINC000807524472    0.0700
     36 H36        -8.7682   -3.5300   59.9956 H       1  ZINC000807524472    0.0900
     37 H37        -7.5709   -2.7435   58.9390 H       1  ZINC000807524472    0.0800
     38 H38        -9.5379    1.2390   60.5117 H       1  ZINC000807524472    0.1600
     39 H39        -8.5684    5.7966   59.2866 H       1  ZINC000807524472    0.0800
     40 H40        -8.3462    4.4603   60.4452 H       1  ZINC000807524472    0.0900
     41 H41        -6.7493    4.3559   58.4981 H       1  ZINC000807524472    0.0800
     42 H42        -7.7920    2.9182   58.6254 H       1  ZINC000807524472    0.0700
     43 H43        -8.3046    5.3190   56.8108 H       1  ZINC000807524472    0.0700
     44 H44        -7.6585    3.7474   56.2817 H       1  ZINC000807524472    0.0700
     45 H45       -10.0933    3.8652   55.8728 H       1  ZINC000807524472    0.0800
     46 H46        -9.7272    2.6343   57.1061 H       1  ZINC000807524472    0.0700
     47 H47       -11.6231    3.9723   57.8681 H       1  ZINC000807524472    0.0900
     48 H48       -10.7044    5.4779   57.6104 H       1  ZINC000807524472    0.0800
     49 H49       -13.4333    2.6633   59.5261 H       1  ZINC000807524472    0.1500
     50 H50       -14.1381    0.3902   58.9203 H       1  ZINC000807524472    0.1400
     51 H51       -13.6290   -2.5067   60.7553 H       1  ZINC000807524472    0.0900
     52 H52       -14.5702   -1.3301   59.7821 H       1  ZINC000807524472    0.0500
     53 H53       -13.9221   -4.2576   59.1245 H       1  ZINC000807524472    0.0800
     54 H54       -15.5081   -3.4227   59.0412 H       1  ZINC000807524472    0.0800
     55 H55       -13.8067   -3.7240   56.8448 H       1  ZINC000807524472    0.0800
     56 H56       -14.9919   -2.3926   57.0035 H       1  ZINC000807524472    0.0700
     57 H57       -13.2825   -0.8843   57.2171 H       1  ZINC000807524472    0.0500
     58 H58       -12.0994   -2.2084   57.0207 H       1  ZINC000807524472    0.0900
@<TRIPOS>BOND
     1     1     2    1
     2     1    29    1
     3     1    30    1
     4     1    31    1
     5     2     3    1
     6     2    32    1
     7     2    33    1
     8     3     4    1
     9     4     5    1
    10     4    34    1
    11     4    35    1
    12     5     6    1
    13     5    36    1
    14     5    37    1
    15     6     7    1
    16     7     8    2
    17     7     9    1
    18     9    23   ar
    19     9    10   ar
    20    10    11   ar
    21    10    38    1
    22    11    12    1
    23    11    21   ar
    24    12    13    2
    25    12    14    2
    26    12    15   am
    27    15    20    1
    28    15    16    1
    29    16    17    1
    30    16    39    1
    31    16    40    1
    32    17    18    1
    33    17    41    1
    34    17    42    1
    35    18    19    1
    36    18    43    1
    37    18    44    1
    38    19    20    1
    39    19    45    1
    40    19    46    1
    41    20    47    1
    42    20    48    1
    43    21    22   ar
    44    21    49    1
    45    22    23   ar
    46    22    50    1
    47    23    24    1
    48    24    28    1
    49    24    25    1
    50    25    26    1
    51    25    51    1
    52    25    52    1
    53    26    27    1
    54    26    53    1
    55    26    54    1
    56    27    28    1
    57    27    55    1
    58    27    56    1
    59    28    57    1
    60    28    58    1
@<TRIPOS>SUBSTRUCTURE
     1 ZINC000807524472        1 TEMP              0 ****  ****    0 ROOT


##########                                Name:    ZINC000171059239
##########                DOCK_Rotatable_Bonds:                   8
##########                         Heavy_Atoms:                  25
##########                    Molecular_Weight:              333.39
##########                DOCK_Rotatable_Bonds:                   8
##########                       Formal_Charge:         1.10269e-06
##########                     HBond_Acceptors:                   5
##########                        HBond_Donors:                   4
##########                         Heavy_Atoms:                  25
##########                          Grid_Score:          -33.714882
##########                     Grid_vdw_energy:          -30.018394
##########                      Grid_es_energy:           -3.696488
##########           Internal_energy_repulsive:            8.126040

@<TRIPOS>MOLECULE
ZINC000171059239
 44 46 1 0 0
SMALL
USER_CHARGES


@<TRIPOS>ATOM
      1 N1         -9.0767   -3.4805   59.2076 N.am    1  ZINC000171059239   -0.8500
      2 C2         -9.7055   -3.5368   58.0170 C.2     1  ZINC000171059239    0.5600
      3 O3         -9.1104   -3.9315   57.0333 O.2     1  ZINC000171059239   -0.5400
      4 C4        -11.1193   -3.1183   57.9072 C.ar    1  ZINC000171059239   -0.1400
      5 C5        -11.7596   -3.1308   56.6673 C.ar    1  ZINC000171059239   -0.0900
      6 C6        -13.0793   -2.7395   56.5718 C.ar    1  ZINC000171059239   -0.1200
      7 C7        -13.7674   -2.3349   57.7017 C.ar    1  ZINC000171059239   -0.0800
      8 C8        -13.1382   -2.3197   58.9341 C.ar    1  ZINC000171059239   -0.0900
      9 C9        -13.8955   -1.8770   60.1595 C.3     1  ZINC000171059239   -0.0900
     10 C10       -14.2681   -0.3994   60.0226 C.3     1  ZINC000171059239    0.1400
     11 N11       -13.0648    0.4233   60.1694 N.am    1  ZINC000171059239   -0.7400
     12 C12       -12.6400    0.7830   61.3968 C.2     1  ZINC000171059239    0.7000
     13 O13       -13.2547    0.4236   62.3824 O.2     1  ZINC000171059239   -0.5700
     14 N14       -11.5339    1.5413   61.5318 N.am    1  ZINC000171059239   -0.6800
     15 C15       -11.0939    1.9140   62.8034 C.ar    1  ZINC000171059239    0.1700
     16 C16       -10.0879    1.1694   63.4551 C.ar    1  ZINC000171059239   -0.0600
     17 C17        -9.5068    0.0443   62.8496 C.ar    1  ZINC000171059239   -0.1100
     18 C18        -8.5382   -0.6504   63.5076 C.ar    1  ZINC000171059239   -0.1100
     19 C19        -8.1135   -0.2613   64.7765 C.ar    1  ZINC000171059239   -0.1200
     20 C20        -8.6545    0.8242   65.3940 C.ar    1  ZINC000171059239   -0.1000
     21 C21        -9.6566    1.5662   64.7450 C.ar    1  ZINC000171059239   -0.0400
     22 C22       -10.2371    2.6926   65.3522 C.ar    1  ZINC000171059239   -0.1200
     23 C23       -11.2058    3.3930   64.7001 C.ar    1  ZINC000171059239   -0.0900
     24 C24       -11.6342    3.0157   63.4310 C.ar    1  ZINC000171059239   -0.1200
     25 C25       -11.8211   -2.7145   59.0443 C.ar    1  ZINC000171059239   -0.0500
     26 H26        -8.1494   -3.7561   59.2799 H       1  ZINC000171059239    0.4100
     27 H27        -9.5501   -3.1606   59.9915 H       1  ZINC000171059239    0.4000
     28 H28       -11.2233   -3.4458   55.7844 H       1  ZINC000171059239    0.1300
     29 H29       -13.5761   -2.7487   55.6129 H       1  ZINC000171059239    0.1300
     30 H30       -14.8001   -2.0292   57.6215 H       1  ZINC000171059239    0.1300
     31 H31       -14.8027   -2.4727   60.2609 H       1  ZINC000171059239    0.0800
     32 H32       -13.2705   -2.0139   61.0419 H       1  ZINC000171059239    0.0800
     33 H33       -14.7097   -0.2254   59.0414 H       1  ZINC000171059239    0.0700
     34 H34       -14.9872   -0.1329   60.7972 H       1  ZINC000171059239    0.0700
     35 H35       -12.5736    0.7090   59.3831 H       1  ZINC000171059239    0.4000
     36 H36       -11.0436    1.8280   60.7455 H       1  ZINC000171059239    0.4100
     37 H37        -9.8267   -0.2690   61.8668 H       1  ZINC000171059239    0.1200
     38 H38        -8.0927   -1.5156   63.0393 H       1  ZINC000171059239    0.1200
     39 H39        -7.3440   -0.8298   65.2775 H       1  ZINC000171059239    0.1200
     40 H40        -8.3158    1.1138   66.3779 H       1  ZINC000171059239    0.1300
     41 H41        -9.9154    3.0025   66.3355 H       1  ZINC000171059239    0.1300
     42 H42       -11.6464    4.2575   65.1742 H       1  ZINC000171059239    0.1300
     43 H43       -12.4039    3.5884   62.9351 H       1  ZINC000171059239    0.1400
     44 H44       -11.3313   -2.7024   60.0067 H       1  ZINC000171059239    0.1400
@<TRIPOS>BOND
     1     1     2   am
     2     1    26    1
     3     1    27    1
     4     2     3    2
     5     2     4    1
     6     4    25   ar
     7     4     5   ar
     8     5     6   ar
     9     5    28    1
    10     6     7   ar
    11     6    29    1
    12     7     8   ar
    13     7    30    1
    14     8     9    1
    15     8    25   ar
    16     9    10    1
    17     9    31    1
    18     9    32    1
    19    10    11    1
    20    10    33    1
    21    10    34    1
    22    11    12   am
    23    11    35    1
    24    12    13    2
    25    12    14   am
    26    14    15    1
    27    14    36    1
    28    15    24   ar
    29    15    16   ar
    30    16    21   ar
    31    16    17   ar
    32    17    18   ar
    33    17    37    1
    34    18    19   ar
    35    18    38    1
    36    19    20   ar
    37    19    39    1
    38    20    21   ar
    39    20    40    1
    40    21    22   ar
    41    22    23   ar
    42    22    41    1
    43    23    24   ar
    44    23    42    1
    45    24    43    1
    46    25    44    1
@<TRIPOS>SUBSTRUCTURE
     1 ZINC000171059239        1 TEMP              0 ****  ****    0 ROOT


##########                                Name:    ZINC000058174787
##########                DOCK_Rotatable_Bonds:                   9
##########                         Heavy_Atoms:                  27
##########                    Molecular_Weight:             413.882
##########                DOCK_Rotatable_Bonds:                   9
##########                       Formal_Charge:           0.0200002
##########                     HBond_Acceptors:                  10
##########                        HBond_Donors:                   1
##########                         Heavy_Atoms:                  27
##########                          Grid_Score:          -33.696259
##########                     Grid_vdw_energy:          -33.338764
##########                      Grid_es_energy:           -0.357494
##########           Internal_energy_repulsive:            7.260573

@<TRIPOS>MOLECULE
ZINC000058174787
 47 48 1 0 0
SMALL
USER_CHARGES


@<TRIPOS>ATOM
      1 C1        -11.4219   -1.0154   51.9012 C.3     1  ZINC000058174787   -0.0700
      2 C2        -12.6778   -1.1052   52.7295 C.2     1  ZINC000058174787    0.2100
      3 N3        -12.7287   -1.3585   54.0086 N.2     1  ZINC000058174787   -0.4200
      4 C4        -14.0091   -1.3605   54.4085 C.2     1  ZINC000058174787   -0.5600
      5 S5        -14.5811   -1.6545   56.0489 S.o2    1  ZINC000058174787    2.7400
      6 O6        -14.5717   -0.3960   56.7087 O.2     1  ZINC000058174787   -0.9500
      7 O7        -15.7450   -2.4609   55.9295 O.2     1  ZINC000058174787   -0.9600
      8 N8        -13.4412   -2.5876   56.8056 N.am    1  ZINC000058174787   -1.1100
      9 C9        -13.6389   -3.0004   58.1973 C.3     1  ZINC000058174787    0.1300
     10 C10       -12.7009   -2.2014   59.1043 C.3     1  ZINC000058174787   -0.1200
     11 C11       -13.3731   -0.9169   59.5154 C.2     1  ZINC000058174787    0.4700
     12 O12       -14.5751   -0.8743   59.6315 O.2     1  ZINC000058174787   -0.5000
     13 O13       -12.6367    0.1800   59.7527 O.3     1  ZINC000058174787   -0.3300
     14 C14       -12.2436    0.4250   61.1289 C.3     1  ZINC000058174787    0.0400
     15 H15       -12.3283   -0.4989   61.7009 H       1  ZINC000058174787    0.1200
     16 C16       -13.1588    1.4884   61.7391 C.3     1  ZINC000058174787   -0.1700
     17 C17       -10.8169    0.9091   61.1651 C.2     1  ZINC000058174787    0.4000
     18 O18       -10.3684    1.5444   60.2346 O.2     1  ZINC000058174787   -0.4200
     19 C19        -9.9686    0.6114   62.3292 C.ar    1  ZINC000058174787   -0.1600
     20 C20       -10.0782    1.3793   63.4935 C.ar    1  ZINC000058174787   -0.0600
     21 C21        -9.2804    1.0942   64.5805 C.ar    1  ZINC000058174787   -0.1200
     22 C22        -8.3714    0.0499   64.5222 C.ar    1  ZINC000058174787    0.0000
     23 Cl23       -7.3710   -0.3023   65.8965 Cl      1  ZINC000058174787   -0.0500
     24 C24        -8.2574   -0.7148   63.3723 C.ar    1  ZINC000058174787   -0.1200
     25 C25        -9.0524   -0.4447   62.2794 C.ar    1  ZINC000058174787   -0.0400
     26 C26       -14.7807   -1.0985   53.3363 C.2     1  ZINC000058174787    0.0700
     27 N27       -13.9364   -0.9312   52.2720 N.pl3   1  ZINC000058174787   -0.4500
     28 C28       -14.3259   -0.6284   50.8926 C.3     1  ZINC000058174787    0.0600
     29 H29       -11.0551    0.0110   51.9076 H       1  ZINC000058174787    0.0900
     30 H30       -10.6623   -1.6752   52.3203 H       1  ZINC000058174787    0.1000
     31 H31       -11.6400   -1.3169   50.8767 H       1  ZINC000058174787    0.0800
     32 H32       -12.6428   -2.8608   56.3274 H       1  ZINC000058174787    0.4200
     33 H33       -14.6725   -2.8134   58.4885 H       1  ZINC000058174787    0.0900
     34 H34       -13.4204   -4.0638   58.2954 H       1  ZINC000058174787    0.0900
     35 H35       -12.4660   -2.7889   59.9919 H       1  ZINC000058174787    0.1200
     36 H36       -11.7811   -1.9737   58.5654 H       1  ZINC000058174787    0.1200
     37 H37       -13.0739    2.4124   61.1670 H       1  ZINC000058174787    0.0800
     38 H38       -14.1906    1.1382   61.7129 H       1  ZINC000058174787    0.0800
     39 H39       -12.8637    1.6724   62.7721 H       1  ZINC000058174787    0.0800
     40 H40       -10.7858    2.1937   63.5402 H       1  ZINC000058174787    0.1400
     41 H41        -9.3636    1.6864   65.4799 H       1  ZINC000058174787    0.1400
     42 H42        -7.5468   -1.5272   63.3340 H       1  ZINC000058174787    0.1400
     43 H43        -8.9628   -1.0418   61.3841 H       1  ZINC000058174787    0.1500
     44 H44       -15.8584   -1.0295   53.3202 H       1  ZINC000058174787    0.1900
     45 H45       -14.3646    0.4522   50.7549 H       1  ZINC000058174787    0.0900
     46 H46       -13.5949   -1.0561   50.2065 H       1  ZINC000058174787    0.1000
     47 H47       -15.3078   -1.0560   50.6901 H       1  ZINC000058174787    0.0900
@<TRIPOS>BOND
     1     1     2    1
     2     1    29    1
     3     1    30    1
     4     1    31    1
     5     2    27    1
     6     2     3    2
     7     3     4    1
     8     4     5    1
     9     4    26    2
    10     5     6    2
    11     5     7    2
    12     5     8   am
    13     8     9    1
    14     8    32    1
    15     9    10    1
    16     9    33    1
    17     9    34    1
    18    10    11    1
    19    10    35    1
    20    10    36    1
    21    11    12    2
    22    11    13    1
    23    13    14    1
    24    14    15    1
    25    14    16    1
    26    14    17    1
    27    16    37    1
    28    16    38    1
    29    16    39    1
    30    17    18    2
    31    17    19    1
    32    19    25   ar
    33    19    20   ar
    34    20    21   ar
    35    20    40    1
    36    21    22   ar
    37    21    41    1
    38    22    23    1
    39    22    24   ar
    40    24    25   ar
    41    24    42    1
    42    25    43    1
    43    26    27    1
    44    26    44    1
    45    27    28    1
    46    28    45    1
    47    28    46    1
    48    28    47    1
@<TRIPOS>SUBSTRUCTURE
     1 ZINC000058174787        1 TEMP              0 ****  ****    0 ROOT


##########                                Name:    ZINC000599797189
##########                DOCK_Rotatable_Bonds:                  13
##########                         Heavy_Atoms:                  23
##########                    Molecular_Weight:             329.313
##########                DOCK_Rotatable_Bonds:                  13
##########                       Formal_Charge:          0.00999949
##########                     HBond_Acceptors:                  11
##########                        HBond_Donors:                   3
##########                         Heavy_Atoms:                  23
##########                          Grid_Score:          -33.627129
##########                     Grid_vdw_energy:          -29.907452
##########                      Grid_es_energy:           -3.719676
##########           Internal_energy_repulsive:           18.716974

@<TRIPOS>MOLECULE
ZINC000599797189
 42 42 1 0 0
SMALL
USER_CHARGES


@<TRIPOS>ATOM
      1 C1        -13.9268   -0.2569   54.1908 C.3     1  ZINC000599797189   -0.1500
      2 C2        -13.9102   -0.5144   55.6990 C.3     1  ZINC000599797189    0.0600
      3 O3        -13.4221   -1.8576   55.9553 O.3     1  ZINC000599797189   -0.3600
      4 C4        -13.6350   -2.3597   57.1817 C.2     1  ZINC000599797189    0.4500
      5 O5        -14.4039   -1.8101   57.9344 O.2     1  ZINC000599797189   -0.4800
      6 C6        -12.9149   -3.6089   57.6200 C.3     1  ZINC000599797189    0.1500
      7 N7        -11.6081   -3.2495   58.1763 N.pl3   1  ZINC000599797189   -0.3800
      8 C8        -10.4043   -3.5462   57.6583 C.2     1  ZINC000599797189    0.2800
      9 N9         -9.4861   -3.0500   58.4478 N.2     1  ZINC000599797189   -0.5100
     10 C10       -10.0646   -2.4295   59.4803 C.2     1  ZINC000599797189    0.4700
     11 N11        -9.3921   -1.7831   60.5226 N.am    1  ZINC000599797189   -0.6400
     12 C12        -9.9520   -0.7165   61.1269 C.2     1  ZINC000599797189    0.7100
     13 O13       -11.0411   -0.3150   60.7650 O.2     1  ZINC000599797189   -0.5300
     14 N14        -9.3047   -0.0947   62.1323 N.am    1  ZINC000599797189   -0.7300
     15 C15        -9.9141    1.0636   62.7903 C.3     1  ZINC000599797189    0.1100
     16 C16        -8.9644    1.5985   63.8640 C.3     1  ZINC000599797189    0.1100
     17 H17        -7.9342    1.3943   63.5722 H       1  ZINC000599797189    0.1200
     18 O18        -9.1493    3.0086   64.0038 O.3     1  ZINC000599797189   -0.5400
     19 C19        -9.2627    0.9104   65.1975 C.3     1  ZINC000599797189   -0.1500
     20 C20        -8.2930   -0.2243   65.4054 C.2     1  ZINC000599797189    0.4600
     21 O21        -8.4888   -1.2914   64.8735 O.2     1  ZINC000599797189   -0.4900
     22 O22        -7.2118   -0.0495   66.1813 O.3     1  ZINC000599797189   -0.3600
     23 C23        -7.0398    1.2589   66.7871 C.3     1  ZINC000599797189    0.0400
     24 N24       -11.3668   -2.5218   59.3530 N.2     1  ZINC000599797189   -0.3200
     25 H25       -14.2933    0.7515   53.9984 H       1  ZINC000599797189    0.0800
     26 H26       -12.9168   -0.3584   53.7939 H       1  ZINC000599797189    0.0700
     27 H27       -14.5822   -0.9803   53.7059 H       1  ZINC000599797189    0.0700
     28 H28       -13.2548    0.2091   56.1839 H       1  ZINC000599797189    0.0700
     29 H29       -14.9203   -0.4129   56.0960 H       1  ZINC000599797189    0.0700
     30 H30       -13.5051   -4.1208   58.3800 H       1  ZINC000599797189    0.1500
     31 H31       -12.7760   -4.2679   56.7630 H       1  ZINC000599797189    0.1300
     32 H32       -10.2254   -4.0989   56.7479 H       1  ZINC000599797189    0.2300
     33 H33        -8.5226   -2.1027   60.8106 H       1  ZINC000599797189    0.4200
     34 H34        -8.4352   -0.4143   62.4203 H       1  ZINC000599797189    0.4000
     35 H35       -10.1037    1.8428   62.0520 H       1  ZINC000599797189    0.0800
     36 H36       -10.8547    0.7653   63.2533 H       1  ZINC000599797189    0.0800
     37 H37        -8.8923    3.3551   64.8692 H       1  ZINC000599797189    0.3800
     38 H38        -9.1588    1.6304   66.0092 H       1  ZINC000599797189    0.1200
     39 H39       -10.2807    0.5207   65.1855 H       1  ZINC000599797189    0.1200
     40 H40        -6.9643    2.0144   66.0050 H       1  ZINC000599797189    0.0600
     41 H41        -7.8963    1.4798   67.4242 H       1  ZINC000599797189    0.0600
     42 H42        -6.1297    1.2647   67.3870 H       1  ZINC000599797189    0.1000
@<TRIPOS>BOND
     1     1     2    1
     2     1    25    1
     3     1    26    1
     4     1    27    1
     5     2     3    1
     6     2    28    1
     7     2    29    1
     8     3     4    1
     9     4     5    2
    10     4     6    1
    11     6     7    1
    12     6    30    1
    13     6    31    1
    14     7    24    1
    15     7     8    1
    16     8     9    2
    17     8    32    1
    18     9    10    1
    19    10    11    1
    20    10    24    2
    21    11    12   am
    22    11    33    1
    23    12    13    2
    24    12    14   am
    25    14    15    1
    26    14    34    1
    27    15    16    1
    28    15    35    1
    29    15    36    1
    30    16    17    1
    31    16    18    1
    32    16    19    1
    33    18    37    1
    34    19    20    1
    35    19    38    1
    36    19    39    1
    37    20    21    2
    38    20    22    1
    39    22    23    1
    40    23    40    1
    41    23    41    1
    42    23    42    1
@<TRIPOS>SUBSTRUCTURE
     1 ZINC000599797189        1 TEMP              0 ****  ****    0 ROOT


##########                                Name:    ZINC000426805817
##########                DOCK_Rotatable_Bonds:                   6
##########                         Heavy_Atoms:                  26
##########                    Molecular_Weight:             412.286
##########                DOCK_Rotatable_Bonds:                   6
##########                       Formal_Charge:          -0.0100001
##########                     HBond_Acceptors:                   5
##########                        HBond_Donors:                   4
##########                         Heavy_Atoms:                  26
##########                          Grid_Score:          -33.614056
##########                     Grid_vdw_energy:          -26.810085
##########                      Grid_es_energy:           -6.803970
##########           Internal_energy_repulsive:           11.414326

@<TRIPOS>MOLECULE
ZINC000426805817
 44 47 1 0 0
SMALL
USER_CHARGES


@<TRIPOS>ATOM
      1 O1        -13.6344    0.8204   61.4707 O.co2   1  ZINC000426805817   -0.6300
      2 C2        -12.9558    0.9998   62.4676 C.2     1  ZINC000426805817    0.5000
      3 O3        -13.4311    1.5719   63.4337 O.co2   1  ZINC000426805817   -0.6800
      4 C4        -11.5315    0.5092   62.5079 C.3     1  ZINC000426805817   -0.0500
      5 H5        -11.5222   -0.5646   62.6954 H       1  ZINC000426805817    0.1300
      6 C6        -10.8542    0.7986   61.1669 C.3     1  ZINC000426805817   -0.0500
      7 C7        -10.3533   -0.4906   60.5685 C.2     1  ZINC000426805817   -0.1900
      8 C8         -9.2163   -1.1296   60.8858 C.2     1  ZINC000426805817    0.0500
      9 N9         -9.0956   -2.2675   60.1357 N.pl3   1  ZINC000426805817   -0.5900
     10 C10       -10.1801   -2.3919   59.2955 C.ar    1  ZINC000426805817    0.1100
     11 C11       -10.5504   -3.3384   58.3464 C.ar    1  ZINC000426805817   -0.1200
     12 C12       -11.7266   -3.1856   57.6458 C.ar    1  ZINC000426805817   -0.0700
     13 C13       -12.5516   -2.0924   57.8767 C.ar    1  ZINC000426805817   -0.1100
     14 Br14      -14.1609   -1.9065   56.9012 Br      1  ZINC000426805817   -0.0400
     15 C15       -12.2044   -1.1435   58.8123 C.ar    1  ZINC000426805817   -0.0400
     16 C16       -11.0182   -1.2876   59.5345 C.ar    1  ZINC000426805817   -0.1000
     17 N17       -10.8058    1.2000   63.5822 N.4     1  ZINC000426805817   -0.4800
     18 H18       -10.6603    2.1645   63.3237 H       1  ZINC000426805817    0.4000
     19 H19       -11.3455    1.1579   64.4338 H       1  ZINC000426805817    0.4200
     20 C20        -9.5063    0.5482   63.7933 C.3     1  ZINC000426805817    0.0400
     21 C21        -8.8100    1.1849   64.9683 C.ar    1  ZINC000426805817   -0.1600
     22 C22        -9.0399    2.5219   65.2749 C.ar    1  ZINC000426805817    0.1100
     23 N23        -9.8255    3.5022   64.7114 N.pl3   1  ZINC000426805817   -0.5900
     24 C24        -9.6873    4.6693   65.4124 C.2     1  ZINC000426805817    0.0600
     25 C25        -8.8293    4.4933   66.4297 C.2     1  ZINC000426805817   -0.2000
     26 C26        -8.3815    3.0997   66.3761 C.ar    1  ZINC000426805817   -0.1100
     27 C27        -7.5079    2.3308   67.1471 C.ar    1  ZINC000426805817   -0.0400
     28 C28        -7.2967    1.0189   66.8278 C.ar    1  ZINC000426805817   -0.1500
     29 C29        -7.9478    0.4430   65.7459 C.ar    1  ZINC000426805817   -0.0700
     30 H30       -11.5727    1.2590   60.4888 H       1  ZINC000426805817    0.1200
     31 H31       -10.0152    1.4769   61.3226 H       1  ZINC000426805817    0.0900
     32 H32        -8.5023   -0.7949   61.6238 H       1  ZINC000426805817    0.1700
     33 H33        -8.3564   -2.8935   60.1879 H       1  ZINC000426805817    0.4200
     34 H34        -9.9163   -4.1923   58.1585 H       1  ZINC000426805817    0.1300
     35 H35       -12.0098   -3.9231   56.9094 H       1  ZINC000426805817    0.1400
     36 H36       -12.8481   -0.2946   58.9894 H       1  ZINC000426805817    0.1400
     37 H37        -9.6600   -0.5122   63.9930 H       1  ZINC000426805817    0.1500
     38 H38        -8.8922    0.6646   62.9003 H       1  ZINC000426805817    0.1300
     39 H39       -10.3921    3.3835   63.9331 H       1  ZINC000426805817    0.4300
     40 H40       -10.1934    5.5949   65.1813 H       1  ZINC000426805817    0.1800
     41 H41        -8.5265    5.2382   67.1508 H       1  ZINC000426805817    0.1500
     42 H42        -7.0006    2.7713   67.9927 H       1  ZINC000426805817    0.1300
     43 H43        -6.6207    0.4245   67.4246 H       1  ZINC000426805817    0.1300
     44 H44        -7.7704   -0.5951   65.5060 H       1  ZINC000426805817    0.1300
@<TRIPOS>BOND
     1     1     2   ar
     2     2     3   ar
     3     2     4    1
     4     4     5    1
     5     4     6    1
     6     4    17    1
     7     6     7    1
     8     6    30    1
     9     6    31    1
    10     7    16    1
    11     7     8    2
    12     8     9    1
    13     8    32    1
    14     9    10    1
    15     9    33    1
    16    10    16   ar
    17    10    11   ar
    18    11    12   ar
    19    11    34    1
    20    12    13   ar
    21    12    35    1
    22    13    14    1
    23    13    15   ar
    24    15    16   ar
    25    15    36    1
    26    17    18    1
    27    17    19    1
    28    17    20    1
    29    20    21    1
    30    20    37    1
    31    20    38    1
    32    21    29   ar
    33    21    22   ar
    34    22    26   ar
    35    22    23    1
    36    23    24    1
    37    23    39    1
    38    24    25    2
    39    24    40    1
    40    25    26    1
    41    25    41    1
    42    26    27   ar
    43    27    28   ar
    44    27    42    1
    45    28    29   ar
    46    28    43    1
    47    29    44    1
@<TRIPOS>SUBSTRUCTURE
     1 ZINC000426805817        1 TEMP              0 ****  ****    0 ROOT


##########                                Name:    ZINC001492779707
##########                DOCK_Rotatable_Bonds:                   8
##########                         Heavy_Atoms:                  27
##########                    Molecular_Weight:             374.483
##########                DOCK_Rotatable_Bonds:                   8
##########                       Formal_Charge:           0.0199998
##########                     HBond_Acceptors:                   7
##########                        HBond_Donors:                   0
##########                         Heavy_Atoms:                  27
##########                          Grid_Score:          -33.585079
##########                     Grid_vdw_energy:          -30.382402
##########                      Grid_es_energy:           -3.202676
##########           Internal_energy_repulsive:           31.937708

@<TRIPOS>MOLECULE
ZINC001492779707
 57 59 1 0 0
SMALL
USER_CHARGES


@<TRIPOS>ATOM
      1 C1        -12.4255    2.6666   64.2778 C.3     1  ZINC001492779707   -0.0700
      2 C2        -12.3826    2.0840   62.8888 C.2     1  ZINC001492779707    0.1800
      3 N3        -13.4003    1.9040   62.0951 N.2     1  ZINC001492779707   -0.2900
      4 N4        -13.0080    1.3862   60.9860 N.2     1  ZINC001492779707   -0.3100
      5 C5        -11.7084    1.2067   61.0129 C.2     1  ZINC001492779707    0.3400
      6 N6        -10.9295    0.6718   59.9991 N.3     1  ZINC001492779707   -0.4600
      7 C7        -10.0801    1.7028   59.3880 C.3     1  ZINC001492779707    0.0300
      8 C8        -10.1216   -0.4513   60.4928 C.3     1  ZINC001492779707    0.1100
      9 C9        -10.3449   -1.6552   59.6143 C.ar    1  ZINC001492779707   -0.0400
     10 C10       -11.5389   -1.8010   58.9328 C.ar    1  ZINC001492779707   -0.1300
     11 C11       -11.7470   -2.9045   58.1258 C.ar    1  ZINC001492779707   -0.0800
     12 C12       -10.7618   -3.8641   57.9987 C.ar    1  ZINC001492779707   -0.2100
     13 C13        -9.5625   -3.7202   58.6817 C.ar    1  ZINC001492779707    0.1300
     14 O14        -8.5913   -4.6629   58.5579 O.3     1  ZINC001492779707   -0.3100
     15 C15        -7.6071   -4.4510   57.5437 C.3     1  ZINC001492779707    0.0800
     16 C16        -8.2790   -3.8826   56.2921 C.3     1  ZINC001492779707   -0.1500
     17 C17        -6.5558   -3.4625   58.0518 C.3     1  ZINC001492779707   -0.1800
     18 C18        -9.3541   -2.6096   59.4860 C.ar    1  ZINC001492779707   -0.1400
     19 N19       -11.2679    1.6516   62.2253 N.pl3   1  ZINC001492779707   -0.4600
     20 C20        -9.8882    1.6561   62.7179 C.3     1  ZINC001492779707    0.1200
     21 C21        -9.5887    0.3240   63.4084 C.3     1  ZINC001492779707   -0.1200
     22 C22        -9.0211    0.5894   64.8042 C.3     1  ZINC001492779707    0.0600
     23 H23        -9.8389    0.7695   65.5019 H       1  ZINC001492779707    0.0800
     24 C24        -8.2116   -0.6254   65.2670 C.3     1  ZINC001492779707    0.0300
     25 O25        -7.5929   -0.3267   66.5220 O.3     1  ZINC001492779707   -0.3800
     26 C26        -6.7372    0.8192   66.4801 C.3     1  ZINC001492779707    0.0200
     27 C27        -7.5467    2.0340   66.0175 C.3     1  ZINC001492779707    0.0300
     28 O28        -8.1666    1.7363   64.7627 O.3     1  ZINC001492779707   -0.3800
     29 H29       -12.3032    3.7483   64.2221 H       1  ZINC001492779707    0.0900
     30 H30       -13.3843    2.4327   64.7406 H       1  ZINC001492779707    0.1000
     31 H31       -11.6199    2.2403   64.8757 H       1  ZINC001492779707    0.0800
     32 H32        -9.3489    2.0506   60.1177 H       1  ZINC001492779707    0.0500
     33 H33        -9.5617    1.2826   58.5261 H       1  ZINC001492779707    0.0900
     34 H34       -10.6994    2.5403   59.0667 H       1  ZINC001492779707    0.0700
     35 H35        -9.0669   -0.1770   60.4720 H       1  ZINC001492779707    0.0700
     36 H36       -10.4152   -0.6883   61.5154 H       1  ZINC001492779707    0.0900
     37 H37       -12.3107   -1.0518   59.0311 H       1  ZINC001492779707    0.1200
     38 H38       -12.6807   -3.0162   57.5948 H       1  ZINC001492779707    0.1300
     39 H39       -10.9248   -4.7261   57.3687 H       1  ZINC001492779707    0.1300
     40 H40        -7.1271   -5.3987   57.2997 H       1  ZINC001492779707    0.0700
     41 H41        -8.7592   -2.9349   56.5361 H       1  ZINC001492779707    0.0700
     42 H42        -7.5284   -3.7210   55.5184 H       1  ZINC001492779707    0.0800
     43 H43        -9.0281   -4.5869   55.9302 H       1  ZINC001492779707    0.0700
     44 H44        -6.0772   -3.8674   58.9434 H       1  ZINC001492779707    0.0600
     45 H45        -5.8051   -3.3010   57.2780 H       1  ZINC001492779707    0.0700
     46 H46        -7.0359   -2.5149   58.2958 H       1  ZINC001492779707    0.0700
     47 H47        -8.4215   -2.4952   60.0186 H       1  ZINC001492779707    0.1300
     48 H48        -9.2039    1.7933   61.8806 H       1  ZINC001492779707    0.1000
     49 H49        -9.7593    2.4714   63.4298 H       1  ZINC001492779707    0.1000
     50 H50       -10.5079   -0.2555   63.4941 H       1  ZINC001492779707    0.0900
     51 H51        -8.8606   -0.2345   62.8202 H       1  ZINC001492779707    0.0800
     52 H52        -8.8750   -1.4825   65.3827 H       1  ZINC001492779707    0.1100
     53 H53        -7.4440   -0.8547   64.5278 H       1  ZINC001492779707    0.0600
     54 H54        -6.3328    1.0083   67.4746 H       1  ZINC001492779707    0.1100
     55 H55        -5.9201    0.6384   65.7820 H       1  ZINC001492779707    0.0600
     56 H56        -8.3143    2.2634   66.7565 H       1  ZINC001492779707    0.0600
     57 H57        -6.8833    2.8912   65.9017 H       1  ZINC001492779707    0.1100
@<TRIPOS>BOND
     1     1     2    1
     2     1    29    1
     3     1    30    1
     4     1    31    1
     5     2    19    1
     6     2     3    2
     7     3     4    1
     8     4     5    2
     9     5     6    1
    10     5    19    1
    11     6     7    1
    12     6     8    1
    13     7    32    1
    14     7    33    1
    15     7    34    1
    16     8     9    1
    17     8    35    1
    18     8    36    1
    19     9    18   ar
    20     9    10   ar
    21    10    11   ar
    22    10    37    1
    23    11    12   ar
    24    11    38    1
    25    12    13   ar
    26    12    39    1
    27    13    14    1
    28    13    18   ar
    29    14    15    1
    30    15    16    1
    31    15    17    1
    32    15    40    1
    33    16    41    1
    34    16    42    1
    35    16    43    1
    36    17    44    1
    37    17    45    1
    38    17    46    1
    39    18    47    1
    40    19    20    1
    41    20    21    1
    42    20    48    1
    43    20    49    1
    44    21    22    1
    45    21    50    1
    46    21    51    1
    47    22    23    1
    48    22    28    1
    49    22    24    1
    50    24    25    1
    51    24    52    1
    52    24    53    1
    53    25    26    1
    54    26    27    1
    55    26    54    1
    56    26    55    1
    57    27    28    1
    58    27    56    1
    59    27    57    1
@<TRIPOS>SUBSTRUCTURE
     1 ZINC001492779707        1 TEMP              0 ****  ****    0 ROOT


##########                                Name:    ZINC000281257088
##########                DOCK_Rotatable_Bonds:                   8
##########                         Heavy_Atoms:                  27
##########                    Molecular_Weight:             395.541
##########                DOCK_Rotatable_Bonds:                   8
##########                       Formal_Charge:          -0.0200005
##########                     HBond_Acceptors:                   7
##########                        HBond_Donors:                   1
##########                         Heavy_Atoms:                  27
##########                          Grid_Score:          -33.525581
##########                     Grid_vdw_energy:          -32.894272
##########                      Grid_es_energy:           -0.631308
##########           Internal_energy_repulsive:           30.297594

@<TRIPOS>MOLECULE
ZINC000281257088
 57 58 1 0 0
SMALL
USER_CHARGES


@<TRIPOS>ATOM
      1 C1        -13.4526   -2.7169   57.4597 C.3     1  ZINC000281257088   -0.0700
      2 C2        -12.0257   -2.7225   57.9442 C.2     1  ZINC000281257088    0.1000
      3 N3        -11.0246   -3.3433   57.3749 N.2     1  ZINC000281257088   -0.3000
      4 N4         -9.8712   -3.0995   58.1316 N.pl3   1  ZINC000281257088   -0.3700
      5 C5         -8.5280   -3.6091   57.8439 C.3     1  ZINC000281257088    0.1500
      6 C6         -8.4052   -3.9073   56.3483 C.3     1  ZINC000281257088   -0.6400
      7 S7         -6.7524   -4.5673   55.9972 S.o2    1  ZINC000281257088    2.4300
      8 C8         -5.7390   -3.7218   57.2416 C.3     1  ZINC000281257088   -0.6500
      9 O9         -6.7510   -5.9595   56.2820 O.2     1  ZINC000281257088   -0.9300
     10 O10        -6.3516   -4.1223   54.7085 O.2     1  ZINC000281257088   -0.9300
     11 C11       -10.2157   -2.3125   59.1722 C.2     1  ZINC000281257088    0.0900
     12 C12        -9.2886   -1.8013   60.2447 C.3     1  ZINC000281257088   -0.1000
     13 C13       -11.5417   -2.0598   59.0769 C.2     1  ZINC000281257088   -0.2300
     14 C14       -12.3548   -1.2202   60.0282 C.3     1  ZINC000281257088    0.1400
     15 N15       -12.7298    0.0393   59.3718 N.3     1  ZINC000281257088   -0.6700
     16 C16       -11.6600    1.0379   59.4986 C.3     1  ZINC000281257088    0.1400
     17 H17       -10.7622    0.6742   58.9987 H       1  ZINC000281257088    0.0500
     18 C18       -11.3624    1.2729   60.9572 C.ar    1  ZINC000281257088   -0.0800
     19 C19       -12.3861    1.2361   61.8855 C.ar    1  ZINC000281257088   -0.0600
     20 C20       -12.1144    1.4514   63.2234 C.ar    1  ZINC000281257088   -0.1600
     21 C21       -10.8163    1.7036   63.6338 C.ar    1  ZINC000281257088    0.1000
     22 F22       -10.5494    1.9137   64.9413 F       1  ZINC000281257088   -0.1400
     23 C23        -9.7918    1.7397   62.7031 C.ar    1  ZINC000281257088   -0.1600
     24 C24       -10.0652    1.5193   61.3665 C.ar    1  ZINC000281257088   -0.0900
     25 C25       -12.1079    2.3501   58.8517 C.3     1  ZINC000281257088   -0.0600
     26 C26       -10.9545    3.3548   58.8850 C.3     1  ZINC000281257088   -0.1400
     27 C27       -12.5160    2.0899   57.4002 C.3     1  ZINC000281257088   -0.1400
     28 C28       -13.3011    2.9177   59.6231 C.3     1  ZINC000281257088   -0.1500
     29 H29       -13.5997   -1.8840   56.7722 H       1  ZINC000281257088    0.0800
     30 H30       -13.6655   -3.6543   56.9457 H       1  ZINC000281257088    0.0700
     31 H31       -14.1250   -2.6086   58.3108 H       1  ZINC000281257088    0.0800
     32 H32        -7.7874   -2.8613   58.1273 H       1  ZINC000281257088    0.1100
     33 H33        -8.3570   -4.5234   58.4120 H       1  ZINC000281257088    0.1100
     34 H34        -9.1581   -4.6413   56.0612 H       1  ZINC000281257088    0.1400
     35 H35        -8.5579   -2.9892   55.7810 H       1  ZINC000281257088    0.1400
     36 H36        -6.0990   -3.9776   58.2381 H       1  ZINC000281257088    0.1300
     37 H37        -4.7003   -4.0357   57.1386 H       1  ZINC000281257088    0.1300
     38 H38        -5.8090   -2.6438   57.0958 H       1  ZINC000281257088    0.1300
     39 H39        -8.8694   -0.8435   59.9364 H       1  ZINC000281257088    0.0800
     40 H40        -9.8438   -1.6727   61.1738 H       1  ZINC000281257088    0.0900
     41 H41        -8.4820   -2.5179   60.3996 H       1  ZINC000281257088    0.0700
     42 H42       -13.2558   -1.7636   60.3132 H       1  ZINC000281257088    0.0800
     43 H43       -11.7639   -1.0042   60.9183 H       1  ZINC000281257088    0.0300
     44 H44       -12.9679   -0.1145   58.4034 H       1  ZINC000281257088    0.3400
     45 H45       -13.3985    1.0394   61.5652 H       1  ZINC000281257088    0.1400
     46 H46       -12.9144    1.4233   63.9484 H       1  ZINC000281257088    0.1300
     47 H47        -8.7790    1.9366   63.0221 H       1  ZINC000281257088    0.1300
     48 H48        -9.2661    1.5471   60.6404 H       1  ZINC000281257088    0.1300
     49 H49       -10.1045    2.9504   58.3354 H       1  ZINC000281257088    0.0600
     50 H50       -11.2736    4.2897   58.4241 H       1  ZINC000281257088    0.0500
     51 H51       -10.6638    3.5401   59.9190 H       1  ZINC000281257088    0.0600
     52 H52       -13.3376    1.3741   57.3766 H       1  ZINC000281257088    0.0500
     53 H53       -12.8351    3.0247   56.9394 H       1  ZINC000281257088    0.0600
     54 H54       -11.6658    1.6855   56.8508 H       1  ZINC000281257088    0.0600
     55 H55       -12.9899    3.1757   60.6352 H       1  ZINC000281257088    0.0500
     56 H56       -13.6692    3.8104   59.1174 H       1  ZINC000281257088    0.0600
     57 H57       -14.0943    2.1713   59.6659 H       1  ZINC000281257088    0.0600
@<TRIPOS>BOND
     1     1     2    1
     2     1    29    1
     3     1    30    1
     4     1    31    1
     5     2    13    1
     6     2     3    2
     7     3     4    1
     8     4     5    1
     9     4    11    1
    10     5     6    1
    11     5    32    1
    12     5    33    1
    13     6     7    1
    14     6    34    1
    15     6    35    1
    16     7     8    1
    17     7     9    2
    18     7    10    2
    19     8    36    1
    20     8    37    1
    21     8    38    1
    22    11    12    1
    23    11    13    2
    24    12    39    1
    25    12    40    1
    26    12    41    1
    27    13    14    1
    28    14    15    1
    29    14    42    1
    30    14    43    1
    31    15    16    1
    32    15    44    1
    33    16    17    1
    34    16    18    1
    35    16    25    1
    36    18    24   ar
    37    18    19   ar
    38    19    20   ar
    39    19    45    1
    40    20    21   ar
    41    20    46    1
    42    21    22    1
    43    21    23   ar
    44    23    24   ar
    45    23    47    1
    46    24    48    1
    47    25    26    1
    48    25    27    1
    49    25    28    1
    50    26    49    1
    51    26    50    1
    52    26    51    1
    53    27    52    1
    54    27    53    1
    55    27    54    1
    56    28    55    1
    57    28    56    1
    58    28    57    1
@<TRIPOS>SUBSTRUCTURE
     1 ZINC000281257088        1 TEMP              0 ****  ****    0 ROOT


##########                                Name:    ZINC000269356812
##########                DOCK_Rotatable_Bonds:                  10
##########                         Heavy_Atoms:                  25
##########                    Molecular_Weight:             387.431
##########                DOCK_Rotatable_Bonds:                  10
##########                       Formal_Charge:          0.00999978
##########                     HBond_Acceptors:                  10
##########                        HBond_Donors:                   3
##########                         Heavy_Atoms:                  25
##########                          Grid_Score:          -33.443123
##########                     Grid_vdw_energy:          -28.806442
##########                      Grid_es_energy:           -4.636679
##########           Internal_energy_repulsive:           17.930983

@<TRIPOS>MOLECULE
ZINC000269356812
 40 41 1 0 0
SMALL
USER_CHARGES


@<TRIPOS>ATOM
      1 C1         -8.5996    3.7956   63.8915 C.3     1  ZINC000269356812   -0.1400
      2 C2         -9.1406    3.1556   65.1716 C.3     1  ZINC000269356812    0.2000
      3 O3         -8.9892    4.0679   66.2610 O.3     1  ZINC000269356812   -0.5400
      4 C4        -10.6225    2.8220   64.9880 C.3     1  ZINC000269356812    0.0900
      5 N5        -10.7767    1.8778   63.8786 N.am    1  ZINC000269356812   -0.6900
      6 C6        -12.0013    1.4249   63.5444 C.2     1  ZINC000269356812    0.5100
      7 O7        -12.9762    1.7981   64.1635 O.2     1  ZINC000269356812   -0.5100
      8 C8        -12.1587    0.4638   62.4124 C.2     1  ZINC000269356812    0.5100
      9 O9        -13.1648   -0.2095   62.3234 O.2     1  ZINC000269356812   -0.4900
     10 N10       -11.1836    0.3438   61.4898 N.am    1  ZINC000269356812   -0.6400
     11 C11       -11.3311   -0.5567   60.4291 C.ar    1  ZINC000269356812    0.0900
     12 C12       -10.5385   -1.7023   60.3604 C.ar    1  ZINC000269356812   -0.0600
     13 C13       -10.7185   -2.5646   59.2952 C.ar    1  ZINC000269356812   -0.1200
     14 C14       -11.6777   -2.2633   58.3330 C.ar    1  ZINC000269356812    0.1000
     15 S15       -11.9175   -3.3544   56.9705 S.3     1  ZINC000269356812   -0.0600
     16 C16       -13.6255   -3.9216   57.1975 C.3     1  ZINC000269356812    0.2900
     17 F17       -13.9989   -3.7531   58.5352 F       1  ZINC000269356812   -0.1700
     18 F18       -14.4780   -3.1742   56.3777 F       1  ZINC000269356812   -0.1700
     19 N19       -12.4129   -1.1659   58.4303 N.ar    1  ZINC000269356812   -0.4600
     20 C20       -12.2716   -0.3240   59.4359 C.ar    1  ZINC000269356812    0.1100
     21 C21        -8.3737    1.8919   65.4643 C.2     1  ZINC000269356812   -0.2300
     22 C22        -7.2685    1.8177   66.2075 C.2     1  ZINC000269356812   -0.1100
     23 C23        -6.7374    0.5461   66.3378 C.2     1  ZINC000269356812   -0.1400
     24 C24        -7.4114   -0.4125   65.7006 C.2     1  ZINC000269356812   -0.2000
     25 S25        -8.8033    0.2878   64.8847 S.3     1  ZINC000269356812    0.1100
     26 H26        -7.5438    4.0333   64.0223 H       1  ZINC000269356812    0.0800
     27 H27        -8.7150    3.0997   63.0605 H       1  ZINC000269356812    0.0800
     28 H28        -9.1542    4.7097   63.6797 H       1  ZINC000269356812    0.0700
     29 H29        -9.3115    3.7275   67.1068 H       1  ZINC000269356812    0.3800
     30 H30       -11.0101    2.3740   65.9030 H       1  ZINC000269356812    0.0900
     31 H31       -11.1758    3.7349   64.7678 H       1  ZINC000269356812    0.0900
     32 H32        -9.9974    1.5785   63.3845 H       1  ZINC000269356812    0.4200
     33 H33       -10.3796    0.8818   61.5611 H       1  ZINC000269356812    0.4300
     34 H34        -9.8013   -1.9106   61.1216 H       1  ZINC000269356812    0.1600
     35 H35       -10.1218   -3.4608   59.2104 H       1  ZINC000269356812    0.1500
     36 H36       -13.6968   -4.9760   56.9304 H       1  ZINC000269356812    0.1500
     37 H37       -12.8888    0.5611   59.4819 H       1  ZINC000269356812    0.1700
     38 H38        -6.8215    2.6843   66.6719 H       1  ZINC000269356812    0.1500
     39 H39        -5.8447    0.3454   66.9117 H       1  ZINC000269356812    0.1400
     40 H40        -7.1451   -1.4591   65.6903 H       1  ZINC000269356812    0.1700
@<TRIPOS>BOND
     1     1     2    1
     2     1    26    1
     3     1    27    1
     4     1    28    1
     5     2     3    1
     6     2     4    1
     7     2    21    1
     8     3    29    1
     9     4     5    1
    10     4    30    1
    11     4    31    1
    12     5     6   am
    13     5    32    1
    14     6     7    2
    15     6     8    1
    16     8     9    2
    17     8    10   am
    18    10    11    1
    19    10    33    1
    20    11    20   ar
    21    11    12   ar
    22    12    13   ar
    23    12    34    1
    24    13    14   ar
    25    13    35    1
    26    14    15    1
    27    14    19   ar
    28    15    16    1
    29    16    17    1
    30    16    18    1
    31    16    36    1
    32    19    20   ar
    33    20    37    1
    34    21    25    1
    35    21    22    2
    36    22    23    1
    37    22    38    1
    38    23    24    2
    39    23    39    1
    40    24    25    1
    41    24    40    1
@<TRIPOS>SUBSTRUCTURE
     1 ZINC000269356812        1 TEMP              0 ****  ****    0 ROOT


##########                                Name:    ZINC000006915700
##########                DOCK_Rotatable_Bonds:                   5
##########                         Heavy_Atoms:                  26
##########                    Molecular_Weight:             369.447
##########                DOCK_Rotatable_Bonds:                   5
##########                       Formal_Charge:        -1.04308e-07
##########                     HBond_Acceptors:                   8
##########                        HBond_Donors:                   1
##########                         Heavy_Atoms:                  26
##########                          Grid_Score:          -33.399986
##########                     Grid_vdw_energy:          -32.845036
##########                      Grid_es_energy:           -0.554951
##########           Internal_energy_repulsive:           68.105202

@<TRIPOS>MOLECULE
ZINC000006915700
 45 48 1 0 0
SMALL
USER_CHARGES


@<TRIPOS>ATOM
      1 C1         -6.9371   -4.8267   56.4785 C.3     1  <0>        -0.1200
      2 C2         -7.9303   -4.0417   57.2961 C.ar    1  <0>        -0.0500
      3 C3         -9.2263   -3.8828   56.8387 C.ar    1  <0>        -0.1300
      4 C4        -10.1405   -3.1656   57.5829 C.ar    1  <0>        -0.0600
      5 C5         -9.7554   -2.6001   58.7986 C.ar    1  <0>        -0.0700
      6 C6        -10.7318   -1.8295   59.6024 C.2     1  <0>         0.4400
      7 N7        -12.0154   -1.8547   59.2683 N.2     1  <0>        -0.5200
      8 C8        -12.9081   -1.1646   59.9846 C.2     1  <0>         0.3600
      9 C9        -14.2836   -1.0004   59.8842 C.2     1  <0>        -0.3200
     10 C10       -14.6878   -0.1574   60.9206 C.2     1  <0>         0.5500
     11 O11       -15.8322    0.2047   61.1404 O.2     1  <0>        -0.5200
     12 N12       -13.6009    0.1884   61.6377 N.am    1  <0>        -0.5000
     13 N13       -12.4815   -0.4288   61.0709 N.pl3   1  <0>        -0.3300
     14 C14       -11.1540   -0.4235   61.3888 C.2     1  <0>         0.3900
     15 S15       -10.5751    0.5054   62.7698 S.3     1  <0>         0.1200
     16 C16        -8.9968   -0.3283   63.0698 C.3     1  <0>        -0.1500
     17 C17        -8.3026    0.3172   64.2414 C.2     1  <0>         0.5500
     18 O18        -7.5688   -0.3400   64.9488 O.2     1  <0>        -0.5200
     19 N19        -8.4976    1.6248   64.5032 N.am    1  <0>        -0.6100
     20 C20        -9.3601    2.5335   63.7338 C.3     1  <0>         0.0900
     21 C21        -9.2508    3.9289   64.3837 C.3     1  <0>        -0.1300
     22 C22        -7.8964    3.8563   65.1371 C.3     1  <0>        -0.1400
     23 C23        -7.8860    2.3796   65.6122 C.3     1  <0>         0.1000
     24 N24       -10.3057   -1.1259   60.6542 N.2     1  <0>        -0.5600
     25 C25        -8.4473   -2.7640   59.2543 C.ar    1  <0>        -0.0500
     26 C26        -7.5438   -3.4878   58.5036 C.ar    1  <0>        -0.1300
     27 H27        -6.9789   -5.8772   56.7666 H       1  <0>         0.0800
     28 H28        -7.1804   -4.7302   55.4204 H       1  <0>         0.0700
     29 H29        -5.9335   -4.4407   56.6573 H       1  <0>         0.0700
     30 H30        -9.5231   -4.3208   55.8972 H       1  <0>         0.1300
     31 H31       -11.1518   -3.0419   57.2247 H       1  <0>         0.1300
     32 H32       -14.9253   -1.4449   59.1378 H       1  <0>         0.1800
     33 H33       -13.5957    0.7674   62.4160 H       1  <0>         0.4400
     34 H34        -9.1776   -1.3805   63.2893 H       1  <0>         0.1400
     35 H35        -8.3676   -0.2448   62.1837 H       1  <0>         0.1400
     36 H36        -9.0211    2.5789   62.6990 H       1  <0>         0.0800
     37 H37       -10.3927    2.1862   63.7729 H       1  <0>         0.0800
     38 H38        -9.2271    4.7082   63.6219 H       1  <0>         0.0900
     39 H39       -10.0717    4.0948   65.0813 H       1  <0>         0.0800
     40 H40        -7.0635    4.0595   64.4638 H       1  <0>         0.0800
     41 H41        -7.8850    4.5385   65.9871 H       1  <0>         0.0900
     42 H42        -8.4749    2.2699   66.5228 H       1  <0>         0.0800
     43 H43        -6.8631    2.0416   65.7779 H       1  <0>         0.0800
     44 H44        -8.1433   -2.3285   60.1947 H       1  <0>         0.1400
     45 H45        -6.5308   -3.6156   58.8554 H       1  <0>         0.1300
@<TRIPOS>BOND
     1     1     2    1
     2     1    27    1
     3     1    28    1
     4     1    29    1
     5     2    26   ar
     6     2     3   ar
     7     3     4   ar
     8     3    30    1
     9     4     5   ar
    10     4    31    1
    11     5     6    1
    12     5    25   ar
    13     6    24    1
    14     6     7    2
    15     7     8    1
    16     8    13    1
    17     8     9    2
    18     9    10    1
    19     9    32    1
    20    10    11    2
    21    10    12   am
    22    12    13    1
    23    12    33    1
    24    13    14    1
    25    14    15    1
    26    14    24    2
    27    15    16    1
    28    16    17    1
    29    16    34    1
    30    16    35    1
    31    17    18    2
    32    17    19   am
    33    19    23    1
    34    19    20    1
    35    20    21    1
    36    20    36    1
    37    20    37    1
    38    21    22    1
    39    21    38    1
    40    21    39    1
    41    22    23    1
    42    22    40    1
    43    22    41    1
    44    23    42    1
    45    23    43    1
    46    25    26   ar
    47    25    44    1
    48    26    45    1
@<TRIPOS>SUBSTRUCTURE
     1 <0>         1 TEMP              0 ****  ****    0 ROOT


##########                                Name:    ZINC000265786263
##########                DOCK_Rotatable_Bonds:                   7
##########                         Heavy_Atoms:                  28
##########                    Molecular_Weight:             386.451
##########                DOCK_Rotatable_Bonds:                   7
##########                       Formal_Charge:           0.0499992
##########                     HBond_Acceptors:                   8
##########                        HBond_Donors:                   2
##########                         Heavy_Atoms:                  28
##########                          Grid_Score:          -33.381618
##########                     Grid_vdw_energy:          -29.166727
##########                      Grid_es_energy:           -4.214890
##########           Internal_energy_repulsive:           26.658552

@<TRIPOS>MOLECULE
ZINC000265786263
 54 57 1 0 0
SMALL
USER_CHARGES


@<TRIPOS>ATOM
      1 C1         -9.1473    1.2814   64.5957 C.3     1  ZINC000265786263   -0.1500
      2 C2         -9.7825    2.6247   64.2307 C.3     1  ZINC000265786263    0.1600
      3 C3        -10.2407    3.3616   65.4908 C.3     1  ZINC000265786263   -0.1600
      4 C4         -9.2155    4.2449   66.2048 C.3     1  ZINC000265786263   -0.1600
      5 C5        -10.3586    4.8851   65.4147 C.3     1  ZINC000265786263   -0.1600
      6 N6         -8.8394    3.4508   63.4574 N.am    1  ZINC000265786263   -0.7100
      7 C7         -9.4100    3.6658   62.2582 C.2     1  ZINC000265786263    0.7100
      8 O8         -8.8936    4.3169   61.3713 O.2     1  ZINC000265786263   -0.5400
      9 N9        -10.6094    3.0828   62.1511 N.am    1  ZINC000265786263   -0.5600
     10 C10       -11.4541    3.1515   60.9561 C.3     1  ZINC000265786263    0.1000
     11 C11       -12.2319    1.8683   60.8164 C.2     1  ZINC000265786263    0.5100
     12 O12       -13.3333    1.7694   61.3143 O.2     1  ZINC000265786263   -0.5300
     13 N13       -11.7036    0.8305   60.1379 N.am    1  ZINC000265786263   -0.6100
     14 C14       -10.3663    0.9264   59.5330 C.3     1  ZINC000265786263    0.1100
     15 C15        -9.5418   -0.2855   59.9798 C.3     1  ZINC000265786263    0.0400
     16 N16       -10.2784   -1.5173   59.6665 N.3     1  ZINC000265786263   -0.5300
     17 C17        -9.4514   -2.7044   59.9209 C.3     1  ZINC000265786263    0.0900
     18 C18        -8.8532   -3.1871   58.6246 C.ar    1  ZINC000265786263   -0.0600
     19 C19        -9.6699   -3.4354   57.5373 C.ar    1  ZINC000265786263   -0.1300
     20 C20        -9.1241   -3.8784   56.3464 C.ar    1  ZINC000265786263   -0.1000
     21 C21        -7.7608   -4.0739   56.2407 C.ar    1  ZINC000265786263   -0.1400
     22 C22        -6.9390   -3.8254   57.3307 C.ar    1  ZINC000265786263    0.1100
     23 O23        -5.5973   -4.0167   57.2290 O.3     1  ZINC000265786263   -0.5000
     24 C24        -7.4882   -3.3757   58.5223 C.ar    1  ZINC000265786263   -0.1200
     25 C25       -11.5422   -1.5866   60.4120 C.3     1  ZINC000265786263    0.0400
     26 C26       -12.4462   -0.4301   59.9882 C.3     1  ZINC000265786263    0.1200
     27 C27       -10.9443    2.4239   63.2781 C.2     1  ZINC000265786263    0.5400
     28 O28       -11.9626    1.7998   63.4863 O.2     1  ZINC000265786263   -0.4500
     29 H29        -8.7936    0.7887   63.6900 H       1  ZINC000265786263    0.0700
     30 H30        -8.3077    1.4479   65.2703 H       1  ZINC000265786263    0.0800
     31 H31        -9.8884    0.6506   65.0867 H       1  ZINC000265786263    0.0900
     32 H32       -10.9653    2.8310   66.1084 H       1  ZINC000265786263    0.1100
     33 H33        -9.2655    4.2953   67.2925 H       1  ZINC000265786263    0.1000
     34 H34        -8.2146    4.3010   65.7769 H       1  ZINC000265786263    0.1100
     35 H35       -10.1097    5.3625   64.4669 H       1  ZINC000265786263    0.1000
     36 H36       -11.1606    5.3568   65.9826 H       1  ZINC000265786263    0.1000
     37 H37        -7.9756    3.7767   63.7549 H       1  ZINC000265786263    0.4400
     38 H38       -12.1468    3.9881   61.0483 H       1  ZINC000265786263    0.1300
     39 H39       -10.8273    3.2941   60.0758 H       1  ZINC000265786263    0.1300
     40 H40       -10.4552    0.9284   58.4466 H       1  ZINC000265786263    0.0900
     41 H41        -9.8792    1.8433   59.8649 H       1  ZINC000265786263    0.0900
     42 H42        -8.5867   -0.2893   59.4545 H       1  ZINC000265786263    0.0900
     43 H43        -9.3663   -0.2299   61.0541 H       1  ZINC000265786263    0.0400
     44 H44        -8.6523   -2.4482   60.6167 H       1  ZINC000265786263    0.0900
     45 H45       -10.0693   -3.4922   60.3515 H       1  ZINC000265786263    0.0500
     46 H46       -10.7361   -3.2833   57.6181 H       1  ZINC000265786263    0.1200
     47 H47        -9.7643   -4.0719   55.4985 H       1  ZINC000265786263    0.1300
     48 H48        -7.3351   -4.4202   55.3105 H       1  ZINC000265786263    0.1300
     49 H49        -5.1090   -3.8165   58.0393 H       1  ZINC000265786263    0.3900
     50 H50        -6.8506   -3.1816   59.3721 H       1  ZINC000265786263    0.1300
     51 H51       -12.0380   -2.5340   60.2002 H       1  ZINC000265786263    0.1000
     52 H52       -11.3388   -1.5129   61.4803 H       1  ZINC000265786263    0.0400
     53 H53       -13.3353   -0.4103   60.6185 H       1  ZINC000265786263    0.1000
     54 H54       -12.7364   -0.5555   58.9449 H       1  ZINC000265786263    0.0800
@<TRIPOS>BOND
     1     1     2    1
     2     1    29    1
     3     1    30    1
     4     1    31    1
     5     2    27    1
     6     2     3    1
     7     2     6    1
     8     3     5    1
     9     3     4    1
    10     3    32    1
    11     4     5    1
    12     4    33    1
    13     4    34    1
    14     5    35    1
    15     5    36    1
    16     6     7   am
    17     6    37    1
    18     7     8    2
    19     7     9   am
    20     9    10    1
    21     9    27   am
    22    10    11    1
    23    10    38    1
    24    10    39    1
    25    11    12    2
    26    11    13   am
    27    13    26    1
    28    13    14    1
    29    14    15    1
    30    14    40    1
    31    14    41    1
    32    15    16    1
    33    15    42    1
    34    15    43    1
    35    16    17    1
    36    16    25    1
    37    17    18    1
    38    17    44    1
    39    17    45    1
    40    18    24   ar
    41    18    19   ar
    42    19    20   ar
    43    19    46    1
    44    20    21   ar
    45    20    47    1
    46    21    22   ar
    47    21    48    1
    48    22    23    1
    49    22    24   ar
    50    23    49    1
    51    24    50    1
    52    25    26    1
    53    25    51    1
    54    25    52    1
    55    26    53    1
    56    26    54    1
    57    27    28    2
@<TRIPOS>SUBSTRUCTURE
     1 ZINC000265786263        1 TEMP              0 ****  ****    0 ROOT


##########                                Name:    ZINC000919225759
##########                DOCK_Rotatable_Bonds:                   4
##########                         Heavy_Atoms:                  27
##########                    Molecular_Weight:             375.295
##########                DOCK_Rotatable_Bonds:                   4
##########                       Formal_Charge:                0.04
##########                     HBond_Acceptors:                  11
##########                        HBond_Donors:                   0
##########                         Heavy_Atoms:                  27
##########                          Grid_Score:          -33.365402
##########                     Grid_vdw_energy:          -33.067505
##########                      Grid_es_energy:           -0.297897
##########           Internal_energy_repulsive:            8.070363

@<TRIPOS>MOLECULE
ZINC000919225759
 40 41 1 0 0
SMALL
USER_CHARGES


@<TRIPOS>ATOM
      1 C1        -13.0440   -0.0165   60.7670 C.3     1  ZINC000919225759   -0.1500
      2 C2        -11.9016   -0.9231   60.3870 C.ar    1  ZINC000919225759    0.0900
      3 C3        -10.6079   -0.6417   60.8301 C.ar    1  ZINC000919225759   -0.1200
      4 C4        -10.3539    0.5449   61.6725 C.2     1  ZINC000919225759    0.5200
      5 O5         -9.5547    1.3857   61.3124 O.2     1  ZINC000919225759   -0.4700
      6 O6        -11.0088    0.6945   62.8403 O.3     1  ZINC000919225759   -0.3400
      7 C7        -10.9040    1.9868   63.4939 C.3     1  ZINC000919225759    0.1400
      8 H8        -10.8553    2.7725   62.7399 H       1  ZINC000919225759    0.1100
      9 C9        -12.1287    2.2091   64.3836 C.3     1  ZINC000919225759   -0.1700
     10 C10        -9.6563    2.0230   64.3384 C.ar    1  ZINC000919225759   -0.1000
     11 C11        -9.0779    3.2351   64.6649 C.ar    1  ZINC000919225759   -0.0400
     12 C12        -7.9332    3.2683   65.4395 C.ar    1  ZINC000919225759   -0.1100
     13 C13        -7.3677    2.0896   65.8878 C.ar    1  ZINC000919225759   -0.0500
     14 C14        -7.9469    0.8772   65.5620 C.ar    1  ZINC000919225759   -0.0400
     15 N15        -7.3409   -0.3852   66.0416 N.pl3   1  ZINC000919225759    0.0300
     16 O16        -6.3320   -0.3559   66.7234 O.2     1  ZINC000919225759   -0.1500
     17 O17        -7.8511   -1.4532   65.7546 O.2     1  ZINC000919225759   -0.1500
     18 C18        -9.0936    0.8442   64.7911 C.ar    1  ZINC000919225759   -0.0400
     19 C19        -9.5553   -1.4873   60.4738 C.ar    1  ZINC000919225759    0.0500
     20 C20        -9.7997   -2.5937   59.6874 C.ar    1  ZINC000919225759   -0.0600
     21 N21        -8.6852   -3.4915   59.3091 N.pl3   1  ZINC000919225759    0.0300
     22 O22        -7.5540   -3.2527   59.6921 O.2     1  ZINC000919225759   -0.1300
     23 O23        -8.8994   -4.4688   58.6146 O.2     1  ZINC000919225759   -0.1300
     24 C24       -11.0844   -2.8667   59.2516 C.ar    1  ZINC000919225759    0.0400
     25 C25       -12.1328   -2.0361   59.6053 C.ar    1  ZINC000919225759   -0.0500
     26 N26       -13.5038   -2.3364   59.1350 N.pl3   1  ZINC000919225759    0.0200
     27 O27       -13.6796   -2.7819   58.0152 O.2     1  ZINC000919225759   -0.1300
     28 O28       -14.4561   -2.1378   59.8679 O.2     1  ZINC000919225759   -0.1200
     29 H29       -13.4086   -0.2875   61.7578 H       1  ZINC000919225759    0.1200
     30 H30       -12.6994    1.0175   60.7768 H       1  ZINC000919225759    0.1200
     31 H31       -13.8500   -0.1241   60.0412 H       1  ZINC000919225759    0.0900
     32 H32       -12.1774    1.4235   65.1376 H       1  ZINC000919225759    0.0700
     33 H33       -12.0500    3.1793   64.8744 H       1  ZINC000919225759    0.0900
     34 H34       -13.0311    2.1830   63.7729 H       1  ZINC000919225759    0.0700
     35 H35        -9.5198    4.1561   64.3146 H       1  ZINC000919225759    0.1500
     36 H36        -7.4809    4.2154   65.6942 H       1  ZINC000919225759    0.1500
     37 H37        -6.4731    2.1156   66.4924 H       1  ZINC000919225759    0.1600
     38 H38        -9.5461   -0.1029   64.5365 H       1  ZINC000919225759    0.1600
     39 H39        -8.5520   -1.2753   60.8128 H       1  ZINC000919225759    0.1900
     40 H40       -11.2702   -3.7343   58.6357 H       1  ZINC000919225759    0.1900
@<TRIPOS>BOND
     1     1     2    1
     2     1    29    1
     3     1    30    1
     4     1    31    1
     5     2    25   ar
     6     2     3   ar
     7     3     4    1
     8     3    19   ar
     9     4     5    2
    10     4     6    1
    11     6     7    1
    12     7     8    1
    13     7     9    1
    14     7    10    1
    15     9    32    1
    16     9    33    1
    17     9    34    1
    18    10    18   ar
    19    10    11   ar
    20    11    12   ar
    21    11    35    1
    22    12    13   ar
    23    12    36    1
    24    13    14   ar
    25    13    37    1
    26    14    15    1
    27    14    18   ar
    28    15    16    2
    29    15    17    2
    30    18    38    1
    31    19    20   ar
    32    19    39    1
    33    20    21    1
    34    20    24   ar
    35    21    22    2
    36    21    23    2
    37    24    25   ar
    38    24    40    1
    39    25    26    1
    40    26    27    2
    41    26    28    2
@<TRIPOS>SUBSTRUCTURE
     1 ZINC000919225759        1 TEMP              0 ****  ****    0 ROOT


##########                                Name:    ZINC001362451754
##########                DOCK_Rotatable_Bonds:                   6
##########                         Heavy_Atoms:                  22
##########                    Molecular_Weight:             339.846
##########                DOCK_Rotatable_Bonds:                   6
##########                       Formal_Charge:         -0.00999987
##########                     HBond_Acceptors:                   7
##########                        HBond_Donors:                   1
##########                         Heavy_Atoms:                  22
##########                          Grid_Score:          -33.356247
##########                     Grid_vdw_energy:          -31.866360
##########                      Grid_es_energy:           -1.489886
##########           Internal_energy_repulsive:           18.777895

@<TRIPOS>MOLECULE
ZINC001362451754
 40 42 1 0 0
SMALL
USER_CHARGES


@<TRIPOS>ATOM
      1 C1        -11.7432    1.6385   64.0590 C.3     1  ZINC001362451754   -0.1700
      2 C2        -10.6894    1.7577   62.9561 C.3     1  ZINC001362451754    0.1400
      3 H3        -10.7729    2.7267   62.4639 H       1  ZINC001362451754    0.0800
      4 C4         -9.2781    1.5952   63.5589 C.3     1  ZINC001362451754   -0.1000
      5 H5         -8.5637    2.2405   63.0476 H       1  ZINC001362451754    0.1000
      6 C6         -9.2940    1.8862   65.0609 C.3     1  ZINC001362451754    0.0900
      7 O7         -7.9810    1.7060   65.5950 O.3     1  ZINC001362451754   -0.5700
      8 C8         -8.9565    0.1009   63.2926 C.3     1  ZINC001362451754   -0.1200
      9 C9         -9.6380   -0.1267   61.9226 C.3     1  ZINC001362451754    0.0900
     10 N10       -10.8708    0.6800   61.9726 N.am    1  ZINC001362451754   -0.6100
     11 C11       -11.9823    0.4623   61.2420 C.2     1  ZINC001362451754    0.6100
     12 O12       -12.9453    1.1959   61.3661 O.2     1  ZINC001362451754   -0.5200
     13 C13       -12.0310   -0.6582   60.2983 C.2     1  ZINC001362451754   -0.2500
     14 C14       -13.0531   -1.5587   60.1890 C.2     1  ZINC001362451754   -0.0500
     15 C15       -12.8360   -2.5130   59.2236 C.2     1  ZINC001362451754   -0.1100
     16 C16       -11.6818   -2.3938   58.5569 C.2     1  ZINC001362451754   -0.2500
     17 C17       -11.2321   -3.3191   57.4558 C.3     1  ZINC001362451754    0.2100
     18 N18        -9.7971   -3.5804   57.5931 N.pl3   1  ZINC001362451754   -0.3700
     19 C19        -8.9263   -3.7847   56.5814 C.2     1  ZINC001362451754    0.0700
     20 C20        -7.7029   -3.9860   57.1248 C.2     1  ZINC001362451754   -0.1800
     21 Cl21       -6.2342   -4.2902   56.2506 Cl      1  ZINC001362451754   -0.0400
     22 C22        -7.8326   -3.9115   58.5161 C.2     1  ZINC001362451754    0.0700
     23 N23        -9.0870   -3.6684   58.7975 N.2     1  ZINC001362451754   -0.2700
     24 S24       -10.7837   -1.0594   59.1257 S.3     1  ZINC001362451754    0.2300
     25 H25       -11.6561    0.6647   64.5409 H       1  ZINC001362451754    0.0600
     26 H26       -11.5866    2.4247   64.7976 H       1  ZINC001362451754    0.0700
     27 H27       -12.7374    1.7411   63.6242 H       1  ZINC001362451754    0.0700
     28 H28        -9.6167    2.9137   65.2285 H       1  ZINC001362451754    0.0500
     29 H29        -9.9846    1.2032   65.5559 H       1  ZINC001362451754    0.0500
     30 H30        -7.2711    1.9179   64.9736 H       1  ZINC001362451754    0.3800
     31 H31        -7.8806   -0.0616   63.2275 H       1  ZINC001362451754    0.0900
     32 H32        -9.4003   -0.5366   64.0573 H       1  ZINC001362451754    0.0800
     33 H33        -9.8798   -1.1812   61.7892 H       1  ZINC001362451754    0.0800
     34 H34        -8.9903    0.2197   61.1172 H       1  ZINC001362451754    0.0800
     35 H35       -13.9410   -1.5265   60.8029 H       1  ZINC001362451754    0.1600
     36 H36       -13.5467   -3.2992   59.0158 H       1  ZINC001362451754    0.1500
     37 H37       -11.7805   -4.2586   57.5240 H       1  ZINC001362451754    0.1100
     38 H38       -11.4258   -2.8545   56.4890 H       1  ZINC001362451754    0.1100
     39 H39        -9.1630   -3.7849   55.5277 H       1  ZINC001362451754    0.1800
     40 H40        -7.0347   -4.0338   59.2338 H       1  ZINC001362451754    0.1900
@<TRIPOS>BOND
     1     1     2    1
     2     1    25    1
     3     1    26    1
     4     1    27    1
     5     2     3    1
     6     2    10    1
     7     2     4    1
     8     4     5    1
     9     4     6    1
    10     4     8    1
    11     6     7    1
    12     6    28    1
    13     6    29    1
    14     7    30    1
    15     8     9    1
    16     8    31    1
    17     8    32    1
    18     9    10    1
    19     9    33    1
    20     9    34    1
    21    10    11   am
    22    11    12    2
    23    11    13    1
    24    13    24    1
    25    13    14    2
    26    14    15    1
    27    14    35    1
    28    15    16    2
    29    15    36    1
    30    16    17    1
    31    16    24    1
    32    17    18    1
    33    17    37    1
    34    17    38    1
    35    18    23    1
    36    18    19    1
    37    19    20    2
    38    19    39    1
    39    20    21    1
    40    20    22    1
    41    22    23    2
    42    22    40    1
@<TRIPOS>SUBSTRUCTURE
     1 ZINC001362451754        1 TEMP              0 ****  ****    0 ROOT


##########                                Name:    ZINC001371344729
##########                DOCK_Rotatable_Bonds:                   9
##########                         Heavy_Atoms:                  24
##########                    Molecular_Weight:             332.399
##########                DOCK_Rotatable_Bonds:                   9
##########                       Formal_Charge:          0.00999983
##########                     HBond_Acceptors:                   6
##########                        HBond_Donors:                   1
##########                         Heavy_Atoms:                  24
##########                          Grid_Score:          -33.318577
##########                     Grid_vdw_energy:          -32.584583
##########                      Grid_es_energy:           -0.733992
##########           Internal_energy_repulsive:           31.393747

@<TRIPOS>MOLECULE
ZINC001371344729
 48 49 1 0 0
SMALL
USER_CHARGES


@<TRIPOS>ATOM
      1 C1        -12.2022    2.7604   59.0137 C.3     1  ZINC001371344729   -0.1800
      2 C2        -11.6855    1.3319   58.8321 C.3     1  ZINC001371344729    0.1000
      3 N3        -12.2114    0.4823   59.9035 N.am    1  ZINC001371344729   -0.6100
      4 C4        -11.5595    0.4009   61.0804 C.2     1  ZINC001371344729    0.5100
      5 O5        -11.9957   -0.3011   61.9679 O.2     1  ZINC001371344729   -0.5200
      6 C6        -10.2886    1.1824   61.2934 C.3     1  ZINC001371344729   -0.0600
      7 C7         -9.6329    0.7354   62.5745 C.2     1  ZINC001371344729   -0.0100
      8 C8         -9.8182    1.2870   63.7872 C.2     1  ZINC001371344729   -0.1600
      9 C9        -10.7120    2.4551   64.1154 C.3     1  ZINC001371344729   -0.0800
     10 C10        -9.0089    0.5645   64.6938 C.2     1  ZINC001371344729   -0.2100
     11 C11        -8.3847   -0.3915   63.9825 C.2     1  ZINC001371344729   -0.0300
     12 O12        -8.7636   -0.2809   62.6988 O.3     1  ZINC001371344729   -0.1700
     13 C13       -13.4459   -0.2786   59.6958 C.3     1  ZINC001371344729    0.1200
     14 H14       -13.8060   -0.1166   58.6799 H       1  ZINC001371344729    0.1100
     15 C15       -14.5072    0.1890   60.6938 C.3     1  ZINC001371344729   -0.1600
     16 C16       -13.1684   -1.7683   59.9070 C.3     1  ZINC001371344729    0.1100
     17 N17       -12.2780   -2.2539   58.8498 N.am    1  ZINC001371344729   -0.7200
     18 C18       -11.0620   -2.7426   59.1644 C.2     1  ZINC001371344729    0.5900
     19 O19       -10.7044   -2.7815   60.3262 O.2     1  ZINC001371344729   -0.5300
     20 C20       -10.1657   -3.2295   58.1007 C.2     1  ZINC001371344729   -0.2300
     21 C21       -10.5155   -3.6140   56.8395 C.2     1  ZINC001371344729    0.0200
     22 O22        -9.4083   -3.9855   56.1894 O.3     1  ZINC001371344729   -0.1700
     23 C23        -8.3284   -3.8700   56.9781 C.2     1  ZINC001371344729   -0.0100
     24 C24        -6.9147   -4.2052   56.5781 C.3     1  ZINC001371344729   -0.0800
     25 C25        -8.7085   -3.4084   58.1792 C.2     1  ZINC001371344729   -0.1600
     26 H26       -11.8723    3.1462   59.9783 H       1  ZINC001371344729    0.0700
     27 H27       -11.8109    3.3925   58.2165 H       1  ZINC001371344729    0.0700
     28 H28       -13.2916    2.7604   58.9758 H       1  ZINC001371344729    0.0600
     29 H29       -10.5961    1.3319   58.8701 H       1  ZINC001371344729    0.0900
     30 H30       -12.0154    0.9461   57.8674 H       1  ZINC001371344729    0.0800
     31 H31       -10.5218    2.2453   61.3562 H       1  ZINC001371344729    0.1100
     32 H32        -9.6105    1.0080   60.4581 H       1  ZINC001371344729    0.1200
     33 H33       -11.7075    2.0909   64.3691 H       1  ZINC001371344729    0.0700
     34 H34       -10.2984    3.0022   64.9627 H       1  ZINC001371344729    0.0700
     35 H35       -10.7764    3.1172   63.2519 H       1  ZINC001371344729    0.0600
     36 H36        -8.9126    0.7438   65.7545 H       1  ZINC001371344729    0.1500
     37 H37        -7.6921   -1.1208   64.3760 H       1  ZINC001371344729    0.2000
     38 H38       -14.7049    1.2503   60.5432 H       1  ZINC001371344729    0.0700
     39 H39       -15.4257   -0.3772   60.5393 H       1  ZINC001371344729    0.0700
     40 H40       -14.1470    0.0270   61.7097 H       1  ZINC001371344729    0.0700
     41 H41       -12.6941   -1.9156   60.8774 H       1  ZINC001371344729    0.0800
     42 H42       -14.1072   -2.3211   59.8739 H       1  ZINC001371344729    0.0800
     43 H43       -12.5638   -2.2239   57.9233 H       1  ZINC001371344729    0.4000
     44 H44       -11.5167   -3.6159   56.4344 H       1  ZINC001371344729    0.2100
     45 H45        -6.7098   -5.2506   56.8094 H       1  ZINC001371344729    0.0800
     46 H46        -6.7905   -4.0387   55.5082 H       1  ZINC001371344729    0.0800
     47 H47        -6.2211   -3.5690   57.1278 H       1  ZINC001371344729    0.0900
     48 H48        -8.0737   -3.2087   59.0298 H       1  ZINC001371344729    0.1600
@<TRIPOS>BOND
     1     1     2    1
     2     1    26    1
     3     1    27    1
     4     1    28    1
     5     2     3    1
     6     2    29    1
     7     2    30    1
     8     3     4   am
     9     3    13    1
    10     4     5    2
    11     4     6    1
    12     6     7    1
    13     6    31    1
    14     6    32    1
    15     7    12    1
    16     7     8    2
    17     8     9    1
    18     8    10    1
    19     9    33    1
    20     9    34    1
    21     9    35    1
    22    10    11    2
    23    10    36    1
    24    11    12    1
    25    11    37    1
    26    13    14    1
    27    13    15    1
    28    13    16    1
    29    15    38    1
    30    15    39    1
    31    15    40    1
    32    16    17    1
    33    16    41    1
    34    16    42    1
    35    17    18   am
    36    17    43    1
    37    18    19    2
    38    18    20    1
    39    20    25    1
    40    20    21    2
    41    21    22    1
    42    21    44    1
    43    22    23    1
    44    23    24    1
    45    23    25    2
    46    24    45    1
    47    24    46    1
    48    24    47    1
    49    25    48    1
@<TRIPOS>SUBSTRUCTURE
     1 ZINC001371344729        1 TEMP              0 ****  ****    0 ROOT


##########                                Name:    ZINC001490207225
##########                DOCK_Rotatable_Bonds:                   7
##########                         Heavy_Atoms:                  24
##########                    Molecular_Weight:             334.378
##########                DOCK_Rotatable_Bonds:                   7
##########                       Formal_Charge:           -0.010001
##########                     HBond_Acceptors:                   9
##########                        HBond_Donors:                   3
##########                         Heavy_Atoms:                  24
##########                          Grid_Score:          -33.306587
##########                     Grid_vdw_energy:          -29.353956
##########                      Grid_es_energy:           -3.952632
##########           Internal_energy_repulsive:            4.675110

@<TRIPOS>MOLECULE
ZINC001490207225
 46 48 1 0 0
SMALL
USER_CHARGES


@<TRIPOS>ATOM
      1 C1         -8.8555    3.1227   66.4559 C.3     1  ZINC001490207225    0.0900
      2 N2         -9.8368    3.1041   65.3683 N.pl3   1  ZINC001490207225   -0.3600
      3 C3        -10.5177    2.0274   64.9444 C.2     1  ZINC001490207225    0.1300
      4 C4        -11.3339    2.4359   63.9088 C.2     1  ZINC001490207225   -0.3000
      5 C5        -12.2622    1.5877   63.1392 C.2     1  ZINC001490207225    0.6200
      6 O6        -13.4631    1.7354   63.2603 O.2     1  ZINC001490207225   -0.5400
      7 N7        -11.7798    0.6486   62.3015 N.am    1  ZINC001490207225   -0.6200
      8 C8        -10.3630    0.3405   62.0474 C.3     1  ZINC001490207225    0.1100
      9 C9        -10.2772   -0.1366   60.5882 C.3     1  ZINC001490207225   -0.1100
     10 H10        -9.8744    0.6324   59.9289 H       1  ZINC001490207225    0.1000
     11 C11        -9.4524   -1.4396   60.5312 C.3     1  ZINC001490207225    0.1000
     12 N12       -10.2093   -2.3242   59.6157 N.am    1  ZINC001490207225   -0.6200
     13 C13        -9.7182   -3.1579   58.6775 C.2     1  ZINC001490207225    0.5300
     14 O14       -10.4744   -3.8219   58.0005 O.2     1  ZINC001490207225   -0.5300
     15 C15        -8.2295   -3.2651   58.4696 C.3     1  ZINC001490207225    0.1200
     16 N16        -7.9614   -3.9336   57.1938 N.am    1  ZINC001490207225   -0.7400
     17 C17        -6.7216   -3.9058   56.6660 C.2     1  ZINC001490207225    0.7100
     18 N18        -6.4746   -4.5222   55.4932 N.am    1  ZINC001490207225   -0.8600
     19 O19        -5.8259   -3.3249   57.2479 O.2     1  ZINC001490207225   -0.5900
     20 C20       -11.6285   -2.0846   59.9652 C.3     1  ZINC001490207225    0.1100
     21 C21       -11.7251   -0.5377   60.2040 C.3     1  ZINC001490207225   -0.0800
     22 C22       -12.2540    0.2022   58.9736 C.3     1  ZINC001490207225   -0.1300
     23 C23       -12.5668   -0.2737   61.4667 C.3     1  ZINC001490207225    0.1000
     24 C24       -11.1134    3.8193   63.7248 C.2     1  ZINC001490207225    0.0700
     25 N25       -10.2270    4.2067   64.6001 N.2     1  ZINC001490207225   -0.2900
     26 H26        -9.3616    3.3312   67.3984 H       1  ZINC001490207225    0.0800
     27 H27        -8.3610    2.1532   66.5158 H       1  ZINC001490207225    0.0900
     28 H28        -8.1136    3.8976   66.2626 H       1  ZINC001490207225    0.1000
     29 H29       -10.4407    1.0255   65.3406 H       1  ZINC001490207225    0.1900
     30 H30        -9.7552    1.2349   62.1848 H       1  ZINC001490207225    0.0900
     31 H31       -10.0255   -0.4486   62.7193 H       1  ZINC001490207225    0.0800
     32 H32        -8.4575   -1.2421   60.1322 H       1  ZINC001490207225    0.0900
     33 H33        -9.3829   -1.8887   61.5220 H       1  ZINC001490207225    0.0900
     34 H34        -7.7917   -2.2670   58.4559 H       1  ZINC001490207225    0.1000
     35 H35        -7.7899   -3.8435   59.2823 H       1  ZINC001490207225    0.1000
     36 H36        -8.6762   -4.3960   56.7290 H       1  ZINC001490207225    0.4100
     37 H37        -5.5820   -4.5031   55.1139 H       1  ZINC001490207225    0.4000
     38 H38        -7.1893   -4.9846   55.0283 H       1  ZINC001490207225    0.4200
     39 H39       -12.2773   -2.3743   59.1387 H       1  ZINC001490207225    0.0900
     40 H40       -11.8949   -2.6332   60.8686 H       1  ZINC001490207225    0.0800
     41 H41       -13.2573   -0.1537   58.7392 H       1  ZINC001490207225    0.0700
     42 H42       -12.2868    1.2721   59.1792 H       1  ZINC001490207225    0.0600
     43 H43       -11.5949    0.0151   58.1260 H       1  ZINC001490207225    0.0600
     44 H44       -12.7261   -1.2043   62.0114 H       1  ZINC001490207225    0.0800
     45 H45       -13.5247    0.1681   61.1921 H       1  ZINC001490207225    0.0900
     46 H46       -11.5972    4.4470   62.9911 H       1  ZINC001490207225    0.2000
@<TRIPOS>BOND
     1     1     2    1
     2     1    26    1
     3     1    27    1
     4     1    28    1
     5     2    25    1
     6     2     3    1
     7     3     4    2
     8     3    29    1
     9     4     5    1
    10     4    24    1
    11     5     6    2
    12     5     7   am
    13     7    23    1
    14     7     8    1
    15     8     9    1
    16     8    30    1
    17     8    31    1
    18     9    10    1
    19     9    21    1
    20     9    11    1
    21    11    12    1
    22    11    32    1
    23    11    33    1
    24    12    13   am
    25    12    20    1
    26    13    14    2
    27    13    15    1
    28    15    16    1
    29    15    34    1
    30    15    35    1
    31    16    17   am
    32    16    36    1
    33    17    18   am
    34    17    19    2
    35    18    37    1
    36    18    38    1
    37    20    21    1
    38    20    39    1
    39    20    40    1
    40    21    22    1
    41    21    23    1
    42    22    41    1
    43    22    42    1
    44    22    43    1
    45    23    44    1
    46    23    45    1
    47    24    25    2
    48    24    46    1
@<TRIPOS>SUBSTRUCTURE
     1 ZINC001490207225        1 TEMP              0 ****  ****    0 ROOT


##########                                Name:    ZINC000007167963
##########                DOCK_Rotatable_Bonds:                   8
##########                         Heavy_Atoms:                  25
##########                    Molecular_Weight:             378.433
##########                DOCK_Rotatable_Bonds:                   8
##########                       Formal_Charge:        -1.01328e-06
##########                     HBond_Acceptors:                  10
##########                        HBond_Donors:                   3
##########                         Heavy_Atoms:                  25
##########                          Grid_Score:          -33.296955
##########                     Grid_vdw_energy:          -34.178726
##########                      Grid_es_energy:            0.881772
##########           Internal_energy_repulsive:            9.228866

@<TRIPOS>MOLECULE
ZINC000007167963
 39 41 1 0 0
SMALL
USER_CHARGES


@<TRIPOS>ATOM
      1 C1         -8.8037    2.8432   65.9788 C.3     1  ZINC000007167963   -0.0800
      2 C2         -8.4989    1.4311   65.5493 C.2     1  ZINC000007167963    0.0900
      3 C3         -9.0591    0.7823   64.4922 C.2     1  ZINC000007167963   -0.1500
      4 C4        -10.0694    1.3127   63.5529 C.2     1  ZINC000007167963    0.2600
      5 N5        -10.3921    2.5727   63.3903 N.2     1  ZINC000007167963   -0.2700
      6 N6        -11.3066    2.6673   62.4904 N.2     1  ZINC000007167963   -0.2800
      7 C7        -11.6045    1.4712   62.0424 C.2     1  ZINC000007167963    0.1200
      8 S8        -12.7975    1.0890   60.8034 S.3     1  ZINC000007167963    0.1500
      9 C9        -12.7724   -0.7188   60.8899 C.3     1  ZINC000007167963   -0.1200
     10 H10       -12.6407   -1.0312   61.9258 H       1  ZINC000007167963    0.1400
     11 C11       -14.0938   -1.2734   60.3541 C.3     1  ZINC000007167963   -0.1500
     12 C12       -11.6321   -1.2458   60.0574 C.2     1  ZINC000007167963    0.5300
     13 O13       -10.6836   -0.5325   59.8075 O.2     1  ZINC000007167963   -0.4900
     14 N14       -11.6664   -2.5097   59.5907 N.am    1  ZINC000007167963   -0.6100
     15 C15       -10.6164   -2.9950   58.8261 C.2     1  ZINC000007167963    0.0800
     16 C16       -10.7181   -3.3717   57.5120 C.2     1  ZINC000007167963   -0.2400
     17 C17       -11.9651   -3.3067   56.7436 C.2     1  ZINC000007167963    0.5900
     18 N18       -13.0923   -3.8534   57.2407 N.am    1  ZINC000007167963   -0.8400
     19 O19       -11.9824   -2.7590   55.6568 O.2     1  ZINC000007167963   -0.5600
     20 C20        -9.4638   -3.8390   56.9639 C.2     1  ZINC000007167963   -0.0900
     21 C21        -8.4692   -3.8100   57.8396 C.2     1  ZINC000007167963   -0.2800
     22 S22        -9.0206   -3.1985   59.3891 S.3     1  ZINC000007167963    0.3000
     23 O23       -10.8265    0.5887   62.6994 O.3     1  ZINC000007167963   -0.2000
     24 C24        -8.4503   -0.5543   64.4781 C.2     1  ZINC000007167963   -0.1800
     25 C25        -7.5944   -0.5826   65.5127 C.2     1  ZINC000007167963   -0.0300
     26 O26        -7.6259    0.6028   66.1402 O.3     1  ZINC000007167963   -0.1700
     27 H27        -8.2022    3.0951   66.8522 H       1  ZINC000007167963    0.0800
     28 H28        -8.5680    3.5293   65.1653 H       1  ZINC000007167963    0.1000
     29 H29        -9.8611    2.9265   66.2296 H       1  ZINC000007167963    0.1000
     30 H30       -14.9187   -0.8922   60.9562 H       1  ZINC000007167963    0.0900
     31 H31       -14.2256   -0.9610   59.3182 H       1  ZINC000007167963    0.0800
     32 H32       -14.0788   -2.3620   60.4063 H       1  ZINC000007167963    0.0800
     33 H33       -12.4256   -3.0797   59.7896 H       1  ZINC000007167963    0.4400
     34 H34       -13.9170   -3.8114   56.7316 H       1  ZINC000007167963    0.4000
     35 H35       -13.0789   -4.2888   58.1073 H       1  ZINC000007167963    0.4100
     36 H36        -9.3494   -4.1779   55.9450 H       1  ZINC000007167963    0.1500
     37 H37        -7.4559   -4.1174   57.6271 H       1  ZINC000007167963    0.1700
     38 H38        -8.6508   -1.3523   63.7785 H       1  ZINC000007167963    0.1600
     39 H39        -6.9767   -1.4233   65.7920 H       1  ZINC000007167963    0.2200
@<TRIPOS>BOND
     1     1     2    1
     2     1    27    1
     3     1    28    1
     4     1    29    1
     5     2    26    1
     6     2     3    2
     7     3     4    1
     8     3    24    1
     9     4    23    1
    10     4     5    2
    11     5     6    1
    12     6     7    2
    13     7     8    1
    14     7    23    1
    15     8     9    1
    16     9    10    1
    17     9    11    1
    18     9    12    1
    19    11    30    1
    20    11    31    1
    21    11    32    1
    22    12    13    2
    23    12    14   am
    24    14    15    1
    25    14    33    1
    26    15    22    1
    27    15    16    2
    28    16    17    1
    29    16    20    1
    30    17    18   am
    31    17    19    2
    32    18    34    1
    33    18    35    1
    34    20    21    2
    35    20    36    1
    36    21    22    1
    37    21    37    1
    38    24    25    2
    39    24    38    1
    40    25    26    1
    41    25    39    1
@<TRIPOS>SUBSTRUCTURE
     1 ZINC000007167963        1 TEMP              0 ****  ****    0 ROOT


##########                                Name:    ZINC000938043669
##########                DOCK_Rotatable_Bonds:                   7
##########                         Heavy_Atoms:                  27
##########                    Molecular_Weight:             372.439
##########                DOCK_Rotatable_Bonds:                   7
##########                       Formal_Charge:           0.0499999
##########                     HBond_Acceptors:                   6
##########                        HBond_Donors:                   1
##########                         Heavy_Atoms:                  27
##########                          Grid_Score:          -33.262890
##########                     Grid_vdw_energy:          -29.746283
##########                      Grid_es_energy:           -3.516607
##########           Internal_energy_repulsive:           21.327753

@<TRIPOS>MOLECULE
ZINC000938043669
 52 55 1 0 0
SMALL
USER_CHARGES


@<TRIPOS>ATOM
      1 O1        -12.6585   -3.1749   58.0461 O.2     1  ZINC000938043669   -0.5000
      2 C2        -11.9184   -2.4601   58.6882 C.2     1  ZINC000938043669    0.5300
      3 C3        -10.4514   -2.7900   58.7878 C.3     1  ZINC000938043669    0.0500
      4 O4        -10.0681   -3.5979   57.6731 O.3     1  ZINC000938043669   -0.2800
      5 C5         -8.7442   -3.6386   57.3666 C.ar    1  ZINC000938043669    0.0900
      6 C6         -8.3407   -3.7939   56.0495 C.ar    1  ZINC000938043669   -0.1800
      7 C7         -6.9942   -3.8344   55.7400 C.ar    1  ZINC000938043669   -0.0900
      8 C8         -6.0490   -3.7203   56.7420 C.ar    1  ZINC000938043669   -0.1300
      9 C9         -6.4470   -3.5657   58.0574 C.ar    1  ZINC000938043669   -0.1100
     10 C10        -7.7928   -3.5187   58.3723 C.ar    1  ZINC000938043669    0.0800
     11 F11        -8.1820   -3.3675   59.6571 F       1  ZINC000938043669   -0.1300
     12 N12       -12.4070   -1.3676   59.3081 N.am    1  ZINC000938043669   -0.6200
     13 C13       -13.8102   -0.9294   59.2930 C.3     1  ZINC000938043669    0.1000
     14 C14       -13.9012    0.3466   60.1560 C.3     1  ZINC000938043669   -0.1400
     15 C15       -12.6525    0.2373   61.0705 C.3     1  ZINC000938043669    0.1300
     16 H16       -12.8512   -0.4059   61.9278 H       1  ZINC000938043669    0.1100
     17 N17       -12.2021    1.5620   61.5048 N.am    1  ZINC000938043669   -0.7200
     18 C18       -12.3847    1.9505   62.7823 C.2     1  ZINC000938043669    0.5200
     19 O19       -12.9206    1.2030   63.5728 O.2     1  ZINC000938043669   -0.5200
     20 C20       -11.9230    3.3138   63.2286 C.3     1  ZINC000938043669   -0.1000
     21 H21       -11.2560    3.7354   62.4768 H       1  ZINC000938043669    0.1000
     22 C22       -11.1774    3.1892   64.5593 C.3     1  ZINC000938043669   -0.1100
     23 C23       -11.8931    4.0243   65.6288 C.3     1  ZINC000938043669   -0.0600
     24 H24       -11.4078    3.9088   66.5980 H       1  ZINC000938043669    0.0800
     25 C25       -13.3407    3.5601   65.6914 C.2     1  ZINC000938043669   -0.1800
     26 C26       -13.9891    3.6685   64.5342 C.2     1  ZINC000938043669   -0.1300
     27 C27       -13.1388    4.2324   63.4060 C.3     1  ZINC000938043669   -0.0400
     28 H28       -13.7176    4.3056   62.4852 H       1  ZINC000938043669    0.0900
     29 C29       -12.6385    5.6153   63.8457 C.3     1  ZINC000938043669   -0.1200
     30 C30       -11.8774    5.4933   65.1841 C.3     1  ZINC000938043669   -0.1100
     31 C31       -11.6238   -0.4174   60.1187 C.3     1  ZINC000938043669    0.1000
     32 H32        -9.8704   -1.8676   58.7848 H       1  ZINC000938043669    0.1000
     33 H33       -10.2634   -3.3348   59.7130 H       1  ZINC000938043669    0.1000
     34 H34        -9.0782   -3.8834   55.2657 H       1  ZINC000938043669    0.1400
     35 H35        -6.6802   -3.9558   54.7137 H       1  ZINC000938043669    0.1300
     36 H36        -4.9975   -3.7524   56.4972 H       1  ZINC000938043669    0.1400
     37 H37        -5.7065   -3.4772   58.8385 H       1  ZINC000938043669    0.1500
     38 H38       -14.1187   -0.7085   58.2711 H       1  ZINC000938043669    0.0800
     39 H39       -14.4462   -1.7080   59.7142 H       1  ZINC000938043669    0.0800
     40 H40       -13.8455    1.2389   59.5323 H       1  ZINC000938043669    0.0900
     41 H41       -14.8153    0.3463   60.7498 H       1  ZINC000938043669    0.1000
     42 H42       -11.7723    2.1594   60.8728 H       1  ZINC000938043669    0.4000
     43 H43       -11.1576    2.1440   64.8678 H       1  ZINC000938043669    0.0700
     44 H44       -10.1565    3.5514   64.4387 H       1  ZINC000938043669    0.0800
     45 H45       -13.7996    3.1781   66.5914 H       1  ZINC000938043669    0.1200
     46 H46       -15.0228    3.3821   64.4078 H       1  ZINC000938043669    0.1200
     47 H47       -11.9646    6.0154   63.0881 H       1  ZINC000938043669    0.0700
     48 H48       -13.4882    6.2872   63.9669 H       1  ZINC000938043669    0.0700
     49 H49       -12.3709    6.1050   65.9394 H       1  ZINC000938043669    0.0700
     50 H50       -10.8519    5.8378   65.0514 H       1  ZINC000938043669    0.0700
     51 H51       -10.8585   -0.9422   60.6905 H       1  ZINC000938043669    0.0900
     52 H52       -11.1684    0.3360   59.4761 H       1  ZINC000938043669    0.0700
@<TRIPOS>BOND
     1     1     2    2
     2     2     3    1
     3     2    12   am
     4     3     4    1
     5     3    32    1
     6     3    33    1
     7     4     5    1
     8     5    10   ar
     9     5     6   ar
    10     6     7   ar
    11     6    34    1
    12     7     8   ar
    13     7    35    1
    14     8     9   ar
    15     8    36    1
    16     9    10   ar
    17     9    37    1
    18    10    11    1
    19    12    31    1
    20    12    13    1
    21    13    14    1
    22    13    38    1
    23    13    39    1
    24    14    15    1
    25    14    40    1
    26    14    41    1
    27    15    16    1
    28    15    17    1
    29    15    31    1
    30    17    18   am
    31    17    42    1
    32    18    19    2
    33    18    20    1
    34    20    21    1
    35    20    27    1
    36    20    22    1
    37    22    23    1
    38    22    43    1
    39    22    44    1
    40    23    24    1
    41    23    30    1
    42    23    25    1
    43    25    26    2
    44    25    45    1
    45    26    27    1
    46    26    46    1
    47    27    28    1
    48    27    29    1
    49    29    30    1
    50    29    47    1
    51    29    48    1
    52    30    49    1
    53    30    50    1
    54    31    51    1
    55    31    52    1
@<TRIPOS>SUBSTRUCTURE
     1 ZINC000938043669        1 TEMP              0 ****  ****    0 ROOT


##########                                Name:    ZINC000481050680
##########                DOCK_Rotatable_Bonds:                   7
##########                         Heavy_Atoms:                  29
##########                    Molecular_Weight:              412.46
##########                DOCK_Rotatable_Bonds:                   7
##########                       Formal_Charge:          -0.0199997
##########                     HBond_Acceptors:                   7
##########                        HBond_Donors:                   1
##########                         Heavy_Atoms:                  29
##########                          Grid_Score:          -33.243626
##########                     Grid_vdw_energy:          -30.528017
##########                      Grid_es_energy:           -2.715608
##########           Internal_energy_repulsive:           14.300620

@<TRIPOS>MOLECULE
ZINC000481050680
 47 49 1 0 0
SMALL
USER_CHARGES


@<TRIPOS>ATOM
      1 N1         -7.3940   -4.1421   56.0502 N.1     1  ZINC000481050680   -0.3900
      2 C2         -8.3309   -3.9063   56.6476 C.1     1  ZINC000481050680    0.2500
      3 C3         -9.5122   -3.6091   57.4006 C.ar    1  ZINC000481050680    0.0200
      4 C4         -9.4343   -3.4223   58.7820 C.ar    1  ZINC000481050680   -0.0800
      5 C5        -10.5754   -3.1356   59.5027 C.ar    1  ZINC000481050680   -0.0800
      6 C6        -11.7959   -3.0329   58.8604 C.ar    1  ZINC000481050680   -0.1000
      7 C7        -13.0377   -2.7195   59.6545 C.3     1  ZINC000481050680   -0.5900
      8 S8        -13.1421   -0.9299   59.9324 S.o2    1  ZINC000481050680    2.6000
      9 O9        -13.1191   -0.2310   58.6954 O.2     1  ZINC000481050680   -0.9300
     10 O10       -14.1180   -0.6352   60.9225 O.2     1  ZINC000481050680   -0.9400
     11 N11       -11.7017   -0.5384   60.6496 N.am    1  ZINC000481050680   -1.1100
     12 C12       -11.4243    0.8500   61.0260 C.3     1  ZINC000481050680    0.2100
     13 H13       -12.3641    1.3899   61.1407 H       1  ZINC000481050680    0.1000
     14 C14       -10.5835    1.5159   59.9347 C.3     1  ZINC000481050680   -0.0800
     15 C15       -10.0358    2.8220   60.4495 C.ar    1  ZINC000481050680   -0.0900
     16 C16        -8.7141    3.1556   60.2200 C.ar    1  ZINC000481050680   -0.1200
     17 C17        -8.2116    4.3537   60.6922 C.ar    1  ZINC000481050680   -0.1200
     18 C18        -9.0310    5.2184   61.3935 C.ar    1  ZINC000481050680   -0.1200
     19 C19       -10.3529    4.8851   61.6223 C.ar    1  ZINC000481050680   -0.1200
     20 C20       -10.8566    3.6890   61.1464 C.ar    1  ZINC000481050680   -0.1200
     21 C21       -10.6678    0.8756   62.3289 C.ar    1  ZINC000481050680   -0.1300
     22 C22        -9.4432    0.2434   62.4298 C.ar    1  ZINC000481050680   -0.0700
     23 C23        -8.7489    0.2668   63.6253 C.ar    1  ZINC000481050680   -0.1300
     24 C24        -9.2789    0.9220   64.7208 C.ar    1  ZINC000481050680   -0.0900
     25 C25       -10.5039    1.5546   64.6225 C.ar    1  ZINC000481050680   -0.1500
     26 C26       -11.1969    1.5376   63.4242 C.ar    1  ZINC000481050680    0.1100
     27 F27       -12.3943    2.1556   63.3269 F       1  ZINC000481050680   -0.1400
     28 C28       -11.8817   -3.2164   57.4892 C.ar    1  ZINC000481050680    0.1200
     29 F29       -13.0772   -3.1141   56.8684 F       1  ZINC000481050680   -0.1200
     30 C30       -10.7456   -3.4991   56.7556 C.ar    1  ZINC000481050680   -0.1000
     31 H31        -8.4823   -3.5023   59.2859 H       1  ZINC000481050680    0.1500
     32 H32       -10.5155   -2.9914   60.5714 H       1  ZINC000481050680    0.1500
     33 H33       -13.9161   -3.0533   59.1021 H       1  ZINC000481050680    0.1500
     34 H34       -12.9947   -3.2343   60.6143 H       1  ZINC000481050680    0.1500
     35 H35       -11.0416   -1.2285   60.8205 H       1  ZINC000481050680    0.4200
     36 H36        -9.7583    0.8588   59.6603 H       1  ZINC000481050680    0.0900
     37 H37       -11.2060    1.7024   59.0597 H       1  ZINC000481050680    0.0900
     38 H38        -8.0739    2.4800   59.6721 H       1  ZINC000481050680    0.1200
     39 H39        -7.1788    4.6140   60.5135 H       1  ZINC000481050680    0.1200
     40 H40        -8.6382    6.1541   61.7631 H       1  ZINC000481050680    0.1200
     41 H41       -10.9930    5.5605   62.1706 H       1  ZINC000481050680    0.1200
     42 H42       -11.8893    3.4286   61.3251 H       1  ZINC000481050680    0.1200
     43 H43        -9.0285   -0.2694   61.5746 H       1  ZINC000481050680    0.1300
     44 H44        -7.7918   -0.2275   63.7031 H       1  ZINC000481050680    0.1300
     45 H45        -8.7358    0.9393   65.6543 H       1  ZINC000481050680    0.1300
     46 H46       -10.9181    2.0659   65.4789 H       1  ZINC000481050680    0.1400
     47 H47       -10.8125   -3.6419   55.6872 H       1  ZINC000481050680    0.1600
@<TRIPOS>BOND
     1     1     2    3
     2     2     3    1
     3     3    30   ar
     4     3     4   ar
     5     4     5   ar
     6     4    31    1
     7     5     6   ar
     8     5    32    1
     9     6     7    1
    10     6    28   ar
    11     7     8    1
    12     7    33    1
    13     7    34    1
    14     8     9    2
    15     8    10    2
    16     8    11   am
    17    11    12    1
    18    11    35    1
    19    12    13    1
    20    12    14    1
    21    12    21    1
    22    14    15    1
    23    14    36    1
    24    14    37    1
    25    15    20   ar
    26    15    16   ar
    27    16    17   ar
    28    16    38    1
    29    17    18   ar
    30    17    39    1
    31    18    19   ar
    32    18    40    1
    33    19    20   ar
    34    19    41    1
    35    20    42    1
    36    21    26   ar
    37    21    22   ar
    38    22    23   ar
    39    22    43    1
    40    23    24   ar
    41    23    44    1
    42    24    25   ar
    43    24    45    1
    44    25    26   ar
    45    25    46    1
    46    26    27    1
    47    28    29    1
    48    28    30   ar
    49    30    47    1
@<TRIPOS>SUBSTRUCTURE
     1 ZINC000481050680        1 TEMP              0 ****  ****    0 ROOT


##########                                Name:    ZINC000416583757
##########                DOCK_Rotatable_Bonds:                   7
##########                         Heavy_Atoms:                  20
##########                    Molecular_Weight:             380.693
##########                DOCK_Rotatable_Bonds:                   7
##########                       Formal_Charge:         1.04308e-07
##########                     HBond_Acceptors:                   7
##########                        HBond_Donors:                   1
##########                         Heavy_Atoms:                  20
##########                          Grid_Score:          -33.217503
##########                     Grid_vdw_energy:          -27.991589
##########                      Grid_es_energy:           -5.225914
##########           Internal_energy_repulsive:            8.123967

@<TRIPOS>MOLECULE
ZINC000416583757
 35 35 1 0 0
SMALL
USER_CHARGES


@<TRIPOS>ATOM
      1 C1         -8.0074    2.4785   65.8287 C.3     1  ZINC000416583757   -0.1500
      2 C2         -8.7123    1.5655   64.8235 C.3     1  ZINC000416583757   -0.0200
      3 H3         -8.3799    1.8106   63.8148 H       1  ZINC000416583757    0.1200
      4 C4         -8.3834    0.1618   65.1210 C.1     1  ZINC000416583757    0.2100
      5 N5         -8.1296   -0.9213   65.3505 N.1     1  ZINC000416583757   -0.4200
      6 C6        -10.2255    1.7672   64.9251 C.3     1  ZINC000416583757    0.1300
      7 N7        -10.7137    2.4207   63.7081 N.am    1  ZINC000416583757   -1.0100
      8 C8        -10.1100    3.6777   63.2592 C.3     1  ZINC000416583757    0.0800
      9 S9        -11.9480    1.7385   62.8401 S.o2    1  ZINC000416583757    2.7800
     10 O10       -13.0132    1.5261   63.7564 O.2     1  ZINC000416583757   -0.9700
     11 O11       -12.0833    2.5143   61.6574 O.2     1  ZINC000416583757   -0.9700
     12 N12       -11.4384    0.2379   62.3594 N.am    1  ZINC000416583757   -1.1300
     13 C13       -10.2487    0.1041   61.5151 C.3     1  ZINC000416583757    0.1600
     14 C14       -10.4665   -0.9988   60.5115 C.ar    1  ZINC000416583757   -0.0800
     15 C15       -11.7482   -1.3239   60.1098 C.ar    1  ZINC000416583757   -0.0800
     16 C16       -11.9487   -2.3362   59.1879 C.ar    1  ZINC000416583757   -0.0300
     17 Cl17      -13.5587   -2.7442   58.6828 Cl      1  ZINC000416583757   -0.0500
     18 C18       -10.8659   -3.0225   58.6685 C.ar    1  ZINC000416583757   -0.0700
     19 C19        -9.5833   -2.6965   59.0710 C.ar    1  ZINC000416583757   -0.0800
     20 Br20       -8.1025   -3.6342   58.3615 Br      1  ZINC000416583757   -0.0300
     21 C21        -9.3838   -1.6810   59.9886 C.ar    1  ZINC000416583757   -0.0700
     22 H22        -6.9420    2.2488   65.8433 H       1  ZINC000416583757    0.0700
     23 H23        -8.1509    3.5190   65.5372 H       1  ZINC000416583757    0.0800
     24 H24        -8.4272    2.3182   66.8218 H       1  ZINC000416583757    0.0700
     25 H25       -10.7143    0.7996   65.0390 H       1  ZINC000416583757    0.0900
     26 H26       -10.4515    2.3924   65.7889 H       1  ZINC000416583757    0.1000
     27 H27        -9.2767    3.4621   62.5903 H       1  ZINC000416583757    0.0700
     28 H28       -10.8562    4.2708   62.7304 H       1  ZINC000416583757    0.0800
     29 H29        -9.7478    4.2357   64.1226 H       1  ZINC000416583757    0.0800
     30 H30       -11.9276   -0.5523   62.6370 H       1  ZINC000416583757    0.4200
     31 H31       -10.0681    1.0423   60.9905 H       1  ZINC000416583757    0.0800
     32 H32        -9.3866   -0.1359   62.1374 H       1  ZINC000416583757    0.1000
     33 H33       -12.5935   -0.7881   60.5157 H       1  ZINC000416583757    0.1500
     34 H34       -11.0218   -3.8129   57.9492 H       1  ZINC000416583757    0.1500
     35 H35        -8.3823   -1.4265   60.3029 H       1  ZINC000416583757    0.1400
@<TRIPOS>BOND
     1     1     2    1
     2     1    22    1
     3     1    23    1
     4     1    24    1
     5     2     3    1
     6     2     4    1
     7     2     6    1
     8     4     5    3
     9     6     7    1
    10     6    25    1
    11     6    26    1
    12     7     8    1
    13     7     9   am
    14     8    27    1
    15     8    28    1
    16     8    29    1
    17     9    10    2
    18     9    11    2
    19     9    12   am
    20    12    13    1
    21    12    30    1
    22    13    14    1
    23    13    31    1
    24    13    32    1
    25    14    21   ar
    26    14    15   ar
    27    15    16   ar
    28    15    33    1
    29    16    17    1
    30    16    18   ar
    31    18    19   ar
    32    18    34    1
    33    19    20    1
    34    19    21   ar
    35    21    35    1
@<TRIPOS>SUBSTRUCTURE
     1 ZINC000416583757        1 TEMP              0 ****  ****    0 ROOT


##########                                Name:    ZINC000811540126
##########                DOCK_Rotatable_Bonds:                   7
##########                         Heavy_Atoms:                  21
##########                    Molecular_Weight:             397.212
##########                DOCK_Rotatable_Bonds:                   7
##########                       Formal_Charge:           0.0100001
##########                     HBond_Acceptors:                   4
##########                        HBond_Donors:                   3
##########                         Heavy_Atoms:                  21
##########                          Grid_Score:          -33.173809
##########                     Grid_vdw_energy:          -27.208244
##########                      Grid_es_energy:           -5.965566
##########           Internal_energy_repulsive:           20.249046

@<TRIPOS>MOLECULE
ZINC000811540126
 37 38 1 0 0
SMALL
USER_CHARGES


@<TRIPOS>ATOM
      1 C1         -9.3555    3.3039   63.1472 C.3     1  ZINC000811540126   -0.1600
      2 C2        -10.4849    2.2719   63.1247 C.3     1  ZINC000811540126    0.1200
      3 H3        -11.4107    2.7532   62.8095 H       1  ZINC000811540126    0.1000
      4 N4        -10.1477    1.1994   62.1853 N.am    1  ZINC000811540126   -0.7200
      5 C5        -11.0669    0.2650   61.8712 C.2     1  ZINC000811540126    0.5700
      6 O6        -12.1755    0.3115   62.3686 O.2     1  ZINC000811540126   -0.5100
      7 C7        -10.7280   -0.8139   60.9239 C.ar    1  ZINC000811540126   -0.1600
      8 C8        -11.6294   -1.1765   59.9205 C.ar    1  ZINC000811540126   -0.0400
      9 C9        -11.3065   -2.1858   59.0384 C.ar    1  ZINC000811540126   -0.1200
     10 I10       -12.6595   -2.7284   57.5338 I       1  ZINC000811540126   -0.0300
     11 C11       -10.0909   -2.8424   59.1424 C.ar    1  ZINC000811540126   -0.0400
     12 C12        -9.1910   -2.4939   60.1302 C.ar    1  ZINC000811540126   -0.1500
     13 C13        -9.4970   -1.4773   61.0222 C.ar    1  ZINC000811540126    0.1900
     14 O14        -8.6137   -1.1337   61.9928 O.3     1  ZINC000811540126   -0.4700
     15 C15       -10.6668    1.6843   64.5256 C.3     1  ZINC000811540126    0.1400
     16 H16       -11.2843    0.7881   64.4664 H       1  ZINC000811540126    0.1300
     17 O17       -11.3043    2.6474   65.3671 O.3     1  ZINC000811540126   -0.5400
     18 C18        -9.3195    1.3290   65.1000 C.ar    1  ZINC000811540126   -0.1200
     19 C19        -8.8102    0.0552   64.9306 C.ar    1  ZINC000811540126   -0.1100
     20 C20        -7.5744   -0.2708   65.4575 C.ar    1  ZINC000811540126   -0.1100
     21 C21        -6.8479    0.6773   66.1534 C.ar    1  ZINC000811540126   -0.1200
     22 C22        -7.3570    1.9514   66.3221 C.ar    1  ZINC000811540126   -0.1100
     23 C23        -8.5908    2.2786   65.7914 C.ar    1  ZINC000811540126   -0.1100
     24 H24        -9.2259    3.7225   62.1492 H       1  ZINC000811540126    0.0600
     25 H25        -9.6064    4.1017   63.8461 H       1  ZINC000811540126    0.0700
     26 H26        -8.4298    2.8226   63.4624 H       1  ZINC000811540126    0.0700
     27 H27        -9.2631    1.1618   61.7894 H       1  ZINC000811540126    0.3900
     28 H28       -12.5780   -0.6672   59.8359 H       1  ZINC000811540126    0.1300
     29 H29        -9.8457   -3.6316   58.4471 H       1  ZINC000811540126    0.1400
     30 H30        -8.2456   -3.0106   60.2051 H       1  ZINC000811540126    0.1500
     31 H31        -7.6950   -1.0963   61.6932 H       1  ZINC000811540126    0.4000
     32 H32       -11.2142    2.4646   66.3124 H       1  ZINC000811540126    0.3700
     33 H33        -9.3778   -0.6855   64.3869 H       1  ZINC000811540126    0.1100
     34 H34        -7.1767   -1.2663   65.3258 H       1  ZINC000811540126    0.1200
     35 H35        -5.8828    0.4224   66.5657 H       1  ZINC000811540126    0.1200
     36 H36        -6.7894    2.6920   66.8661 H       1  ZINC000811540126    0.1300
     37 H37        -8.9885    3.2740   65.9232 H       1  ZINC000811540126    0.1200
@<TRIPOS>BOND
     1     1     2    1
     2     1    24    1
     3     1    25    1
     4     1    26    1
     5     2     3    1
     6     2     4    1
     7     2    15    1
     8     4     5   am
     9     4    27    1
    10     5     6    2
    11     5     7    1
    12     7    13   ar
    13     7     8   ar
    14     8     9   ar
    15     8    28    1
    16     9    10    1
    17     9    11   ar
    18    11    12   ar
    19    11    29    1
    20    12    13   ar
    21    12    30    1
    22    13    14    1
    23    14    31    1
    24    15    16    1
    25    15    17    1
    26    15    18    1
    27    17    32    1
    28    18    23   ar
    29    18    19   ar
    30    19    20   ar
    31    19    33    1
    32    20    21   ar
    33    20    34    1
    34    21    22   ar
    35    21    35    1
    36    22    23   ar
    37    22    36    1
    38    23    37    1
@<TRIPOS>SUBSTRUCTURE
     1 ZINC000811540126        1 TEMP              0 ****  ****    0 ROOT


##########                                Name:    ZINC000432833246
##########                DOCK_Rotatable_Bonds:                   5
##########                         Heavy_Atoms:                  25
##########                    Molecular_Weight:             400.318
##########                DOCK_Rotatable_Bonds:                   5
##########                       Formal_Charge:        -3.20375e-07
##########                     HBond_Acceptors:                   4
##########                        HBond_Donors:                   1
##########                         Heavy_Atoms:                  25
##########                          Grid_Score:          -33.084129
##########                     Grid_vdw_energy:          -31.701208
##########                      Grid_es_energy:           -1.382921
##########           Internal_energy_repulsive:           10.145776

@<TRIPOS>MOLECULE
ZINC000432833246
 47 51 1 0 0
SMALL
USER_CHARGES


@<TRIPOS>ATOM
      1 O1         -9.6085   -3.8886   55.5941 O.2     1  ZINC000432833246   -0.5200
      2 C2         -9.3813   -3.7462   56.7769 C.2     1  ZINC000432833246    0.5200
      3 C3        -10.3794   -3.2439   57.7967 C.3     1  ZINC000432833246   -0.1500
      4 C4         -9.7626   -3.6403   59.1581 C.3     1  ZINC000432833246   -0.1100
      5 H5        -10.1406   -4.6070   59.4909 H       1  ZINC000432833246    0.1000
      6 C6        -10.0223   -2.5617   60.2117 C.3     1  ZINC000432833246    0.1300
      7 N7         -9.2648   -1.3546   59.8719 N.pl3   1  ZINC000432833246   -0.7200
      8 C8         -9.6939   -0.1163   60.3250 C.ar    1  ZINC000432833246    0.2800
      9 C9         -9.3723    0.3362   61.6268 C.ar    1  ZINC000432833246   -0.1500
     10 C10        -8.6097   -0.4474   62.5040 C.ar    1  ZINC000432833246   -0.0700
     11 C11        -8.3202    0.0229   63.7495 C.ar    1  ZINC000432833246   -0.1300
     12 C12        -8.7727    1.2733   64.1634 C.ar    1  ZINC000432833246   -0.0600
     13 C13        -9.5157    2.0600   63.3361 C.ar    1  ZINC000432833246   -0.0800
     14 Br14      -10.1166    3.7540   63.9239 Br      1  ZINC000432833246   -0.0300
     15 C15        -9.8337    1.6077   62.0429 C.ar    1  ZINC000432833246    0.1900
     16 N16       -10.5613    2.3599   61.2096 N.ar    1  ZINC000432833246   -0.5000
     17 C17       -10.8657    1.9512   59.9997 C.ar    1  ZINC000432833246    0.2400
     18 C18       -11.6888    2.8465   59.1099 C.3     1  ZINC000432833246   -0.1100
     19 C19       -11.4904    4.3572   59.2500 C.3     1  ZINC000432833246   -0.1700
     20 C20       -10.9536    3.6261   58.0178 C.3     1  ZINC000432833246   -0.1600
     21 C21       -10.4467    0.7198   59.5153 C.ar    1  ZINC000432833246   -0.2700
     22 C22        -8.2598   -3.7243   58.8105 C.3     1  ZINC000432833246    0.1100
     23 N23        -8.2076   -4.0173   57.3734 N.am    1  ZINC000432833246   -0.5900
     24 C24        -7.0255   -4.5308   56.6769 C.3     1  ZINC000432833246    0.0800
     25 C25        -6.5070   -3.7302   55.4806 C.3     1  ZINC000432833246   -0.1900
     26 C26        -5.7293   -3.7270   56.7981 C.3     1  ZINC000432833246   -0.1900
     27 H27       -10.4847   -2.1613   57.7264 H       1  ZINC000432833246    0.1100
     28 H28       -11.3443   -3.7318   57.6585 H       1  ZINC000432833246    0.1000
     29 H29       -11.0866   -2.3276   60.2372 H       1  ZINC000432833246    0.0800
     30 H30        -9.7067   -2.9255   61.1896 H       1  ZINC000432833246    0.0700
     31 H31        -8.4631   -1.4216   59.3300 H       1  ZINC000432833246    0.4000
     32 H32        -8.2539   -1.4190   62.1943 H       1  ZINC000432833246    0.1300
     33 H33        -7.7326   -0.5817   64.4246 H       1  ZINC000432833246    0.1400
     34 H34        -8.5311    1.6244   65.1556 H       1  ZINC000432833246    0.1400
     35 H35       -12.6935    2.4895   58.8837 H       1  ZINC000432833246    0.1300
     36 H36       -12.3647    4.9942   59.1161 H       1  ZINC000432833246    0.1000
     37 H37       -10.7645    4.7033   59.9857 H       1  ZINC000432833246    0.1000
     38 H38        -9.8746    3.4913   57.9429 H       1  ZINC000432833246    0.0900
     39 H39       -11.4748    3.7822   57.0733 H       1  ZINC000432833246    0.1000
     40 H40       -10.7127    0.4113   58.5152 H       1  ZINC000432833246    0.1400
     41 H41        -7.7697   -2.7743   59.0236 H       1  ZINC000432833246    0.0800
     42 H42        -7.7867   -4.5283   59.3742 H       1  ZINC000432833246    0.0900
     43 H43        -6.9418   -5.6166   56.6305 H       1  ZINC000432833246    0.1300
     44 H44        -6.0824   -4.2892   54.6468 H       1  ZINC000432833246    0.1000
     45 H45        -7.0455   -2.8214   55.2118 H       1  ZINC000432833246    0.1300
     46 H46        -5.7561   -2.8161   57.3961 H       1  ZINC000432833246    0.0900
     47 H47        -4.7929   -4.2839   56.8312 H       1  ZINC000432833246    0.1000
@<TRIPOS>BOND
     1     1     2    2
     2     2    23   am
     3     2     3    1
     4     3     4    1
     5     3    27    1
     6     3    28    1
     7     4     5    1
     8     4     6    1
     9     4    22    1
    10     6     7    1
    11     6    29    1
    12     6    30    1
    13     7     8    1
    14     7    31    1
    15     8    21   ar
    16     8     9   ar
    17     9    15   ar
    18     9    10   ar
    19    10    11   ar
    20    10    32    1
    21    11    12   ar
    22    11    33    1
    23    12    13   ar
    24    12    34    1
    25    13    14    1
    26    13    15   ar
    27    15    16   ar
    28    16    17   ar
    29    17    18    1
    30    17    21   ar
    31    18    20    1
    32    18    19    1
    33    18    35    1
    34    19    20    1
    35    19    36    1
    36    19    37    1
    37    20    38    1
    38    20    39    1
    39    21    40    1
    40    22    23    1
    41    22    41    1
    42    22    42    1
    43    23    24    1
    44    24    26    1
    45    24    25    1
    46    24    43    1
    47    25    26    1
    48    25    44    1
    49    25    45    1
    50    26    46    1
    51    26    47    1
@<TRIPOS>SUBSTRUCTURE
     1 ZINC000432833246        1 TEMP              0 ****  ****    0 ROOT


##########                                Name:    ZINC000753658424
##########                DOCK_Rotatable_Bonds:                   8
##########                         Heavy_Atoms:                  24
##########                    Molecular_Weight:             332.399
##########                DOCK_Rotatable_Bonds:                   8
##########                       Formal_Charge:        -9.16421e-07
##########                     HBond_Acceptors:                   6
##########                        HBond_Donors:                   3
##########                         Heavy_Atoms:                  24
##########                          Grid_Score:          -33.050903
##########                     Grid_vdw_energy:          -31.804436
##########                      Grid_es_energy:           -1.246467
##########           Internal_energy_repulsive:           21.662466

@<TRIPOS>MOLECULE
ZINC000753658424
 48 49 1 0 0
SMALL
USER_CHARGES


@<TRIPOS>ATOM
      1 C1        -10.5327    3.4677   65.3675 C.3     1  ZINC000753658424   -0.2000
      2 C2        -10.9660    2.0785   64.9756 C.2     1  ZINC000753658424    0.4400
      3 O3        -12.0232    1.6375   65.3752 O.2     1  ZINC000753658424   -0.4500
      4 C4        -10.1101    1.2599   64.1114 C.2     1  ZINC000753658424   -0.2500
      5 C5         -8.8912    0.6954   64.4539 C.2     1  ZINC000753658424    0.1000
      6 C6         -8.2077    0.8167   65.7916 C.3     1  ZINC000753658424   -0.1000
      7 N7         -8.4243    0.0225   63.3920 N.pl3   1  ZINC000753658424   -0.5300
      8 C8         -9.3205    0.1355   62.3509 C.2     1  ZINC000753658424   -0.0600
      9 C9         -9.1685   -0.4615   61.0179 C.2     1  ZINC000753658424    0.5900
     10 O10        -9.0752    0.2536   60.0380 O.2     1  ZINC000753658424   -0.5200
     11 N11        -9.1323   -1.8017   60.8800 N.am    1  ZINC000753658424   -0.7300
     12 C12        -8.9823   -2.3974   59.5499 C.3     1  ZINC000753658424    0.0900
     13 C13        -9.9743   -3.5515   59.3932 C.3     1  ZINC000753658424    0.1900
     14 H14       -10.1289   -4.0317   60.3594 H       1  ZINC000753658424    0.1300
     15 O15        -9.4527   -4.5052   58.4654 O.3     1  ZINC000753658424   -0.5500
     16 C16       -11.2878   -3.0190   58.8810 C.2     1  ZINC000753658424   -0.0600
     17 C17       -11.9714   -1.9822   59.3979 C.2     1  ZINC000753658424   -0.1800
     18 C18       -13.1377   -1.8288   58.6134 C.2     1  ZINC000753658424   -0.2100
     19 C19       -13.0969   -2.7810   57.6642 C.2     1  ZINC000753658424    0.0000
     20 C20       -14.1345   -3.0040   56.5943 C.3     1  ZINC000753658424   -0.0800
     21 O21       -11.9713   -3.4952   57.8276 O.3     1  ZINC000753658424   -0.1700
     22 C22       -10.3742    0.8904   62.7705 C.2     1  ZINC000753658424   -0.0100
     23 C23       -11.5862    1.2684   61.9586 C.3     1  ZINC000753658424   -0.0500
     24 C24       -12.8077    0.5106   62.4827 C.3     1  ZINC000753658424   -0.1500
     25 C25       -11.8304    2.7741   62.0774 C.3     1  ZINC000753658424   -0.1500
     26 H26       -11.3258    3.9475   65.9408 H       1  ZINC000753658424    0.0800
     27 H27        -9.6298    3.4087   65.9752 H       1  ZINC000753658424    0.1000
     28 H28       -10.3290    4.0515   64.4699 H       1  ZINC000753658424    0.0900
     29 H29        -8.4583   -0.0471   66.4073 H       1  ZINC000753658424    0.0900
     30 H30        -7.1283    0.8581   65.6456 H       1  ZINC000753658424    0.0800
     31 H31        -8.5422    1.7270   66.2892 H       1  ZINC000753658424    0.0900
     32 H32        -7.5874   -0.4669   63.3614 H       1  ZINC000753658424    0.4200
     33 H33        -9.2055   -2.3719   61.6613 H       1  ZINC000753658424    0.4000
     34 H34        -9.1803   -1.6422   58.7893 H       1  ZINC000753658424    0.0900
     35 H35        -7.9660   -2.7734   59.4327 H       1  ZINC000753658424    0.0800
     36 H36        -9.8394   -4.4458   57.5811 H       1  ZINC000753658424    0.3900
     37 H37       -11.6848   -1.3825   60.2490 H       1  ZINC000753658424    0.1500
     38 H38       -13.9127   -1.0893   58.7503 H       1  ZINC000753658424    0.1500
     39 H39       -13.8803   -2.4148   55.7132 H       1  ZINC000753658424    0.0800
     40 H40       -14.1619   -4.0608   56.3292 H       1  ZINC000753658424    0.0800
     41 H41       -15.1120   -2.6973   56.9667 H       1  ZINC000753658424    0.0900
     42 H42       -11.4186    1.0088   60.9133 H       1  ZINC000753658424    0.1100
     43 H43       -13.0475    0.8586   63.4874 H       1  ZINC000753658424    0.0500
     44 H44       -13.6570    0.6902   61.8235 H       1  ZINC000753658424    0.0600
     45 H45       -12.5887   -0.5568   62.5104 H       1  ZINC000753658424    0.0600
     46 H46       -10.9950    3.3139   61.6316 H       1  ZINC000753658424    0.0500
     47 H47       -12.7513    3.0350   61.5558 H       1  ZINC000753658424    0.0600
     48 H48       -11.9190    3.0459   63.1292 H       1  ZINC000753658424    0.0600
@<TRIPOS>BOND
     1     1     2    1
     2     1    26    1
     3     1    27    1
     4     1    28    1
     5     2     3    2
     6     2     4    1
     7     4    22    1
     8     4     5    2
     9     5     6    1
    10     5     7    1
    11     6    29    1
    12     6    30    1
    13     6    31    1
    14     7     8    1
    15     7    32    1
    16     8     9    1
    17     8    22    2
    18     9    10    2
    19     9    11   am
    20    11    12    1
    21    11    33    1
    22    12    13    1
    23    12    34    1
    24    12    35    1
    25    13    14    1
    26    13    15    1
    27    13    16    1
    28    15    36    1
    29    16    21    1
    30    16    17    2
    31    17    18    1
    32    17    37    1
    33    18    19    2
    34    18    38    1
    35    19    20    1
    36    19    21    1
    37    20    39    1
    38    20    40    1
    39    20    41    1
    40    22    23    1
    41    23    24    1
    42    23    25    1
    43    23    42    1
    44    24    43    1
    45    24    44    1
    46    24    45    1
    47    25    46    1
    48    25    47    1
    49    25    48    1
@<TRIPOS>SUBSTRUCTURE
     1 ZINC000753658424        1 TEMP              0 ****  ****    0 ROOT


##########                                Name:    ZINC000816269301
##########                DOCK_Rotatable_Bonds:                   7
##########                         Heavy_Atoms:                  25
##########                    Molecular_Weight:             358.784
##########                DOCK_Rotatable_Bonds:                   7
##########                       Formal_Charge:           0.0100002
##########                     HBond_Acceptors:                   8
##########                        HBond_Donors:                   1
##########                         Heavy_Atoms:                  25
##########                          Grid_Score:          -33.050777
##########                     Grid_vdw_energy:          -32.490944
##########                      Grid_es_energy:           -0.559832
##########           Internal_energy_repulsive:            7.045405

@<TRIPOS>MOLECULE
ZINC000816269301
 40 42 1 0 0
SMALL
USER_CHARGES


@<TRIPOS>ATOM
      1 C1         -8.1307    2.5388   65.4726 C.3     1  ZINC000816269301    0.1000
      2 N2         -8.3964    1.3735   64.6252 N.pl3   1  ZINC000816269301   -0.4000
      3 N3         -7.7632    0.1245   64.6970 N.2     1  ZINC000816269301    0.0000
      4 N4         -8.2506   -0.6567   63.7987 N.2     1  ZINC000816269301   -0.2000
      5 C5         -9.2072   -0.0117   63.0893 C.ar    1  ZINC000816269301   -0.0300
      6 C6        -10.0286   -0.3962   62.0263 C.ar    1  ZINC000816269301    0.0500
      7 C7        -10.9363    0.5137   61.4974 C.ar    1  ZINC000816269301   -0.1400
      8 C8        -11.8076    0.1149   60.3749 C.2     1  ZINC000816269301    0.5200
      9 O9        -11.8313    0.7798   59.3584 O.2     1  ZINC000816269301   -0.5000
     10 O10       -12.5765   -0.9867   60.4773 O.3     1  ZINC000816269301   -0.3500
     11 C11       -13.6149   -1.1611   59.4776 C.3     1  ZINC000816269301    0.0500
     12 C12       -13.2747   -2.3622   58.5930 C.3     1  ZINC000816269301    0.1200
     13 N13       -11.8216   -2.5447   58.5551 N.am    1  ZINC000816269301   -0.7200
     14 C14       -11.2617   -3.2956   57.5859 C.2     1  ZINC000816269301    0.5600
     15 O15       -11.9625   -3.8201   56.7424 O.2     1  ZINC000816269301   -0.5300
     16 C16        -9.7962   -3.4812   57.5487 C.ar    1  ZINC000816269301   -0.1300
     17 C17        -9.1583   -3.7836   56.3443 C.ar    1  ZINC000816269301   -0.0700
     18 C18        -7.7903   -3.9557   56.3158 C.ar    1  ZINC000816269301   -0.1200
     19 C19        -7.0494   -3.8290   57.4793 C.ar    1  ZINC000816269301   -0.0100
     20 Cl20       -5.3276   -4.0465   57.4356 Cl      1  ZINC000816269301   -0.0600
     21 C21        -7.6766   -3.5291   58.6773 C.ar    1  ZINC000816269301   -0.1200
     22 C22        -9.0432   -3.3491   58.7171 C.ar    1  ZINC000816269301   -0.0500
     23 C23       -11.0278    1.8096   62.0265 C.ar    1  ZINC000816269301   -0.0200
     24 C24       -10.2293    2.1902   63.0632 C.ar    1  ZINC000816269301   -0.1300
     25 C25        -9.3175    1.2909   63.6110 C.ar    1  ZINC000816269301    0.1100
     26 H26        -8.7730    2.5022   66.3525 H       1  ZINC000816269301    0.0900
     27 H27        -7.0863    2.5306   65.7846 H       1  ZINC000816269301    0.1000
     28 H28        -8.3351    3.4504   64.9111 H       1  ZINC000816269301    0.1000
     29 H29        -9.9585   -1.3937   61.6182 H       1  ZINC000816269301    0.1600
     30 H30       -14.5706   -1.3335   59.9726 H       1  ZINC000816269301    0.0800
     31 H31       -13.6811   -0.2638   58.8622 H       1  ZINC000816269301    0.1000
     32 H32       -13.7428   -3.2581   59.0009 H       1  ZINC000816269301    0.1000
     33 H33       -13.6452   -2.1863   57.5832 H       1  ZINC000816269301    0.0900
     34 H34       -11.2623   -2.1251   59.2275 H       1  ZINC000816269301    0.4000
     35 H35        -9.7350   -3.8830   55.4366 H       1  ZINC000816269301    0.1400
     36 H36        -7.2958   -4.1900   55.3848 H       1  ZINC000816269301    0.1400
     37 H37        -7.0937   -3.4316   59.5812 H       1  ZINC000816269301    0.1400
     38 H38        -9.5311   -3.1149   59.6516 H       1  ZINC000816269301    0.1500
     39 H39       -11.7356    2.5106   61.6093 H       1  ZINC000816269301    0.1500
     40 H40       -10.3069    3.1901   63.4641 H       1  ZINC000816269301    0.1400
@<TRIPOS>BOND
     1     1     2    1
     2     1    26    1
     3     1    27    1
     4     1    28    1
     5     2    25    1
     6     2     3    1
     7     3     4    2
     8     4     5    1
     9     5    25   ar
    10     5     6   ar
    11     6     7   ar
    12     6    29    1
    13     7     8    1
    14     7    23   ar
    15     8     9    2
    16     8    10    1
    17    10    11    1
    18    11    12    1
    19    11    30    1
    20    11    31    1
    21    12    13    1
    22    12    32    1
    23    12    33    1
    24    13    14   am
    25    13    34    1
    26    14    15    2
    27    14    16    1
    28    16    22   ar
    29    16    17   ar
    30    17    18   ar
    31    17    35    1
    32    18    19   ar
    33    18    36    1
    34    19    20    1
    35    19    21   ar
    36    21    22   ar
    37    21    37    1
    38    22    38    1
    39    23    24   ar
    40    23    39    1
    41    24    25   ar
    42    24    40    1
@<TRIPOS>SUBSTRUCTURE
     1 ZINC000816269301        1 TEMP              0 ****  ****    0 ROOT


##########                                Name:    ZINC000443394081
##########                DOCK_Rotatable_Bonds:                   8
##########                         Heavy_Atoms:                  27
##########                    Molecular_Weight:             389.878
##########                DOCK_Rotatable_Bonds:                   8
##########                       Formal_Charge:          -0.0300003
##########                     HBond_Acceptors:                   6
##########                        HBond_Donors:                   1
##########                         Heavy_Atoms:                  27
##########                          Grid_Score:          -33.031071
##########                     Grid_vdw_energy:          -28.774975
##########                      Grid_es_energy:           -4.256095
##########           Internal_energy_repulsive:           32.845535

@<TRIPOS>MOLECULE
ZINC000443394081
 51 53 1 0 0
SMALL
USER_CHARGES


@<TRIPOS>ATOM
      1 C1        -13.4444   -0.3214   57.3147 C.3     1  ZINC000443394081    0.0200
      2 O2        -13.0664   -1.4443   58.1138 O.3     1  ZINC000443394081   -0.3000
      3 C3        -12.1755   -1.2171   59.1158 C.ar    1  ZINC000443394081    0.1000
      4 C4        -12.4998   -0.3567   60.1463 C.ar    1  ZINC000443394081   -0.1200
      5 C5        -11.5820   -0.1259   61.1749 C.ar    1  ZINC000443394081   -0.1300
      6 C6        -11.9237    0.7923   62.2788 C.2     1  ZINC000443394081    0.5700
      7 O7        -12.9174    0.5922   62.9504 O.2     1  ZINC000443394081   -0.4900
      8 N8        -11.1344    1.8523   62.5426 N.am    1  ZINC000443394081   -0.6100
      9 C9         -9.9057    2.2116   61.8114 C.3     1  ZINC000443394081    0.0900
     10 C10        -9.7374    3.7341   62.0428 C.3     1  ZINC000443394081   -0.1300
     11 C11       -10.2192    3.8812   63.5103 C.3     1  ZINC000443394081   -0.1000
     12 H12        -9.4159    3.6391   64.2061 H       1  ZINC000443394081    0.0900
     13 C13       -10.7480    5.2937   63.7673 C.3     1  ZINC000443394081   -0.1500
     14 C14       -11.3594    2.8456   63.6030 C.3     1  ZINC000443394081    0.1400
     15 H15       -11.3355    2.3539   64.5755 H       1  ZINC000443394081    0.0800
     16 C16       -12.7090    3.5381   63.4033 C.3     1  ZINC000443394081    0.0600
     17 O17       -12.8422    3.9372   62.0376 O.3     1  ZINC000443394081   -0.5400
     18 C18       -10.3410   -0.7663   61.1560 C.ar    1  ZINC000443394081   -0.1000
     19 C19       -10.0232   -1.6234   60.1244 C.ar    1  ZINC000443394081   -0.1800
     20 C20       -10.9367   -1.8572   59.1059 C.ar    1  ZINC000443394081    0.1300
     21 O21       -10.6191   -2.7025   58.0917 O.3     1  ZINC000443394081   -0.3000
     22 C22        -9.8861   -3.8804   58.4344 C.3     1  ZINC000443394081    0.1000
     23 C23        -8.5034   -3.8022   57.8404 C.ar    1  ZINC000443394081   -0.0800
     24 C24        -7.3993   -3.7212   58.6675 C.ar    1  ZINC000443394081   -0.0800
     25 C25        -6.1306   -3.6494   58.1227 C.ar    1  ZINC000443394081   -0.1100
     26 C26        -5.9657   -3.6581   56.7504 C.ar    1  ZINC000443394081   -0.1000
     27 C27        -7.0694   -3.7390   55.9219 C.ar    1  ZINC000443394081   -0.1100
     28 C28        -8.3385   -3.8172   56.4665 C.ar    1  ZINC000443394081   -0.0300
     29 Cl29       -9.7249   -3.9189   55.4268 Cl      1  ZINC000443394081   -0.0700
     30 H30       -14.1576   -0.6401   56.5546 H       1  ZINC000443394081    0.1000
     31 H31       -13.9036    0.4372   57.9484 H       1  ZINC000443394081    0.0600
     32 H32       -12.5603    0.0950   56.8318 H       1  ZINC000443394081    0.0600
     33 H33       -13.4603    0.1368   60.1572 H       1  ZINC000443394081    0.1500
     34 H34        -9.0511    1.6696   62.2163 H       1  ZINC000443394081    0.0700
     35 H35       -10.0212    2.0000   60.7484 H       1  ZINC000443394081    0.0800
     36 H36        -8.6935    4.0314   61.9427 H       1  ZINC000443394081    0.0900
     37 H37       -10.3714    4.3048   61.3643 H       1  ZINC000443394081    0.0800
     38 H38       -11.5690    5.5046   63.0822 H       1  ZINC000443394081    0.0600
     39 H39       -11.1043    5.3669   64.7949 H       1  ZINC000443394081    0.0600
     40 H40        -9.9473    6.0160   63.6082 H       1  ZINC000443394081    0.0600
     41 H41       -13.5128    2.8483   63.6603 H       1  ZINC000443394081    0.0600
     42 H42       -12.7650    4.4168   64.0457 H       1  ZINC000443394081    0.0400
     43 H43       -12.1564    4.5496   61.7381 H       1  ZINC000443394081    0.3700
     44 H44        -9.6300   -0.5896   61.9495 H       1  ZINC000443394081    0.1400
     45 H45        -9.0631   -2.1176   60.1108 H       1  ZINC000443394081    0.1400
     46 H46        -9.8116   -3.9592   59.5191 H       1  ZINC000443394081    0.0800
     47 H47       -10.4016   -4.7564   58.0410 H       1  ZINC000443394081    0.0800
     48 H48        -7.5275   -3.7137   59.7399 H       1  ZINC000443394081    0.1400
     49 H49        -5.2680   -3.5861   58.7696 H       1  ZINC000443394081    0.1300
     50 H50        -4.9745   -3.6012   56.3253 H       1  ZINC000443394081    0.1300
     51 H51        -6.9404   -3.7458   54.8496 H       1  ZINC000443394081    0.1400
@<TRIPOS>BOND
     1     1     2    1
     2     1    30    1
     3     1    31    1
     4     1    32    1
     5     2     3    1
     6     3    20   ar
     7     3     4   ar
     8     4     5   ar
     9     4    33    1
    10     5     6    1
    11     5    18   ar
    12     6     7    2
    13     6     8   am
    14     8    14    1
    15     8     9    1
    16     9    10    1
    17     9    34    1
    18     9    35    1
    19    10    11    1
    20    10    36    1
    21    10    37    1
    22    11    12    1
    23    11    13    1
    24    11    14    1
    25    13    38    1
    26    13    39    1
    27    13    40    1
    28    14    15    1
    29    14    16    1
    30    16    17    1
    31    16    41    1
    32    16    42    1
    33    17    43    1
    34    18    19   ar
    35    18    44    1
    36    19    20   ar
    37    19    45    1
    38    20    21    1
    39    21    22    1
    40    22    23    1
    41    22    46    1
    42    22    47    1
    43    23    28   ar
    44    23    24   ar
    45    24    25   ar
    46    24    48    1
    47    25    26   ar
    48    25    49    1
    49    26    27   ar
    50    26    50    1
    51    27    28   ar
    52    27    51    1
    53    28    29    1
@<TRIPOS>SUBSTRUCTURE
     1 ZINC000443394081        1 TEMP              0 ****  ****    0 ROOT


##########                                Name:    ZINC000967287417
##########                DOCK_Rotatable_Bonds:                   7
##########                         Heavy_Atoms:                  25
##########                    Molecular_Weight:             347.414
##########                DOCK_Rotatable_Bonds:                   7
##########                       Formal_Charge:          -0.0200002
##########                     HBond_Acceptors:                   7
##########                        HBond_Donors:                   1
##########                         Heavy_Atoms:                  25
##########                          Grid_Score:          -33.009232
##########                     Grid_vdw_energy:          -32.670410
##########                      Grid_es_energy:           -0.338822
##########           Internal_energy_repulsive:           10.013978

@<TRIPOS>MOLECULE
ZINC000967287417
 50 52 1 0 0
SMALL
USER_CHARGES


@<TRIPOS>ATOM
      1 C1         -4.0410    3.6999   58.2097 C.3     1  ZINC000967287417    0.0300
      2 O2         -5.4698    3.6816   58.2261 O.3     1  ZINC000967287417   -0.3900
      3 C3         -6.0694    3.9864   56.9653 C.3     1  ZINC000967287417    0.1400
      4 C4         -7.5652    3.8367   57.0711 C.2     1  ZINC000967287417    0.0100
      5 C5         -8.4792    4.5780   56.4070 C.2     1  ZINC000967287417   -0.1900
      6 C6         -9.7465    4.1131   56.7918 C.2     1  ZINC000967287417   -0.1200
      7 C7         -9.5390    3.0991   57.6823 C.2     1  ZINC000967287417   -0.0700
      8 C8        -10.5807    2.3134   58.3517 C.2     1  ZINC000967287417    0.6100
      9 O9        -11.7519    2.4946   58.0750 O.2     1  ZINC000967287417   -0.5200
     10 N10       -10.2412    1.3906   59.2735 N.am    1  ZINC000967287417   -0.7000
     11 C11       -11.2817    0.6044   59.9409 C.3     1  ZINC000967287417    0.1600
     12 H12       -12.2272    1.1455   59.9031 H       1  ZINC000967287417    0.1000
     13 C13       -11.4362   -0.7438   59.2334 C.3     1  ZINC000967287417    0.0400
     14 N14       -10.1685   -1.4818   59.3015 N.3     1  ZINC000967287417   -0.5300
     15 C15       -10.2373   -2.7201   58.5142 C.3     1  ZINC000967287417    0.1300
     16 C16        -8.8509   -3.1124   58.0727 C.2     1  ZINC000967287417    0.0200
     17 N17        -7.7435   -2.9395   58.7348 N.2     1  ZINC000967287417   -0.3500
     18 O18        -6.7885   -3.3580   58.1224 O.3     1  ZINC000967287417    0.1000
     19 C19        -7.1500   -3.8775   56.9409 C.2     1  ZINC000967287417   -0.0300
     20 C20        -6.2397   -4.4920   55.9090 C.3     1  ZINC000967287417   -0.0800
     21 C21        -8.4958   -3.7468   56.8602 C.2     1  ZINC000967287417   -0.2400
     22 C22        -9.7917   -1.7629   60.6926 C.3     1  ZINC000967287417    0.0500
     23 C23        -9.5882   -0.4452   61.4436 C.3     1  ZINC000967287417   -0.1100
     24 C24       -10.8861    0.3676   61.4010 C.3     1  ZINC000967287417   -0.1000
     25 H25       -11.6779   -0.1836   61.9081 H       1  ZINC000967287417    0.0900
     26 C26       -10.6708    1.7119   62.0993 C.3     1  ZINC000967287417   -0.1500
     27 O27        -8.2076    2.9431   57.8346 O.3     1  ZINC000967287417   -0.1600
     28 H28        -3.6936    4.6915   57.9198 H       1  ZINC000967287417    0.0500
     29 H29        -3.6631    3.4587   59.2033 H       1  ZINC000967287417    0.0900
     30 H30        -3.6763    2.9634   57.4936 H       1  ZINC000967287417    0.0500
     31 H31        -5.8258    5.0113   56.6854 H       1  ZINC000967287417    0.0900
     32 H32        -5.6885    3.3024   56.2070 H       1  ZINC000967287417    0.0700
     33 H33        -8.2734    5.3777   55.7110 H       1  ZINC000967287417    0.1600
     34 H34       -10.7009    4.4855   56.4497 H       1  ZINC000967287417    0.1600
     35 H35        -9.3078    1.2469   59.4950 H       1  ZINC000967287417    0.4100
     36 H36       -12.2201   -1.3227   59.7219 H       1  ZINC000967287417    0.0500
     37 H37       -11.7043   -0.5779   58.1900 H       1  ZINC000967287417    0.0900
     38 H38       -10.6629   -3.5161   59.1252 H       1  ZINC000967287417    0.0600
     39 H39       -10.8656   -2.5592   57.6380 H       1  ZINC000967287417    0.0900
     40 H40        -5.2101   -4.4555   56.2649 H       1  ZINC000967287417    0.0800
     41 H41        -6.5294   -5.5291   55.7404 H       1  ZINC000967287417    0.0900
     42 H42        -6.3212   -3.9355   54.9753 H       1  ZINC000967287417    0.0900
     43 H43        -9.1463   -4.0507   56.0534 H       1  ZINC000967287417    0.1700
     44 H44       -10.5833   -2.3370   61.1743 H       1  ZINC000967287417    0.0400
     45 H45        -8.8654   -2.3372   60.7091 H       1  ZINC000967287417    0.0800
     46 H46        -9.3238   -0.6541   62.4803 H       1  ZINC000967287417    0.0700
     47 H47        -8.7873    0.1232   60.9708 H       1  ZINC000967287417    0.0700
     48 H48        -9.8804    2.2633   61.5901 H       1  ZINC000967287417    0.0600
     49 H49       -11.5947    2.2895   62.0684 H       1  ZINC000967287417    0.0600
     50 H50       -10.3839    1.5405   63.1368 H       1  ZINC000967287417    0.0600
@<TRIPOS>BOND
     1     1     2    1
     2     1    28    1
     3     1    29    1
     4     1    30    1
     5     2     3    1
     6     3     4    1
     7     3    31    1
     8     3    32    1
     9     4    27    1
    10     4     5    2
    11     5     6    1
    12     5    33    1
    13     6     7    2
    14     6    34    1
    15     7     8    1
    16     7    27    1
    17     8     9    2
    18     8    10   am
    19    10    11    1
    20    10    35    1
    21    11    12    1
    22    11    24    1
    23    11    13    1
    24    13    14    1
    25    13    36    1
    26    13    37    1
    27    14    15    1
    28    14    22    1
    29    15    16    1
    30    15    38    1
    31    15    39    1
    32    16    21    1
    33    16    17    2
    34    17    18    1
    35    18    19    1
    36    19    20    1
    37    19    21    2
    38    20    40    1
    39    20    41    1
    40    20    42    1
    41    21    43    1
    42    22    23    1
    43    22    44    1
    44    22    45    1
    45    23    24    1
    46    23    46    1
    47    23    47    1
    48    24    25    1
    49    24    26    1
    50    26    48    1
    51    26    49    1
    52    26    50    1
@<TRIPOS>SUBSTRUCTURE
     1 ZINC000967287417        1 TEMP              0 ****  ****    0 ROOT


##########                                Name:    ZINC001362587626
##########                DOCK_Rotatable_Bonds:                   9
##########                         Heavy_Atoms:                  25
##########                    Molecular_Weight:             346.346
##########                DOCK_Rotatable_Bonds:                   9
##########                       Formal_Charge:        -4.02331e-07
##########                     HBond_Acceptors:                  10
##########                        HBond_Donors:                   2
##########                         Heavy_Atoms:                  25
##########                          Grid_Score:          -33.008083
##########                     Grid_vdw_energy:          -31.601530
##########                      Grid_es_energy:           -1.406553
##########           Internal_energy_repulsive:           15.045066

@<TRIPOS>MOLECULE
ZINC001362587626
 43 45 1 0 0
SMALL
USER_CHARGES


@<TRIPOS>ATOM
      1 C1        -12.6679   -2.5339   59.5525 C.3     1  ZINC001362587626   -0.1600
      2 C2        -11.4365   -1.6530   59.3324 C.3     1  ZINC001362587626    0.1300
      3 H3        -11.4735   -1.2200   58.3328 H       1  ZINC001362587626    0.1200
      4 N4        -10.2246   -2.4650   59.4682 N.am    1  ZINC001362587626   -0.7100
      5 C5         -9.7485   -3.1475   58.4081 C.2     1  ZINC001362587626    0.5100
      6 O6        -10.3222   -3.0882   57.3412 O.2     1  ZINC001362587626   -0.5000
      7 C7         -8.5028   -3.9842   58.5483 C.3     1  ZINC001362587626    0.1000
      8 N8         -7.7084   -3.8866   57.3212 N.pl3   1  ZINC001362587626   -0.3100
      9 C9         -6.3656   -3.8448   57.2395 C.2     1  ZINC001362587626    0.1600
     10 N10        -6.0687   -3.7580   55.9658 N.2     1  ZINC001362587626   -0.3000
     11 N11        -7.1716   -3.7471   55.3000 N.2     1  ZINC001362587626   -0.0700
     12 N12        -8.1643   -3.8302   56.1157 N.2     1  ZINC001362587626   -0.0700
     13 C13       -11.4189   -0.5490   60.3578 C.2     1  ZINC001362587626    0.5100
     14 O14       -12.4620   -0.0760   60.7576 O.2     1  ZINC001362587626   -0.5200
     15 N15       -10.2444   -0.0870   60.8307 N.am    1  ZINC001362587626   -0.6600
     16 C16       -10.2282    0.9395   61.7841 C.ar    1  ZINC001362587626    0.1000
     17 C17       -10.8726    2.1412   61.5218 C.ar    1  ZINC001362587626   -0.1000
     18 C18       -10.8567    3.1523   62.4621 C.ar    1  ZINC001362587626   -0.1900
     19 C19       -10.1966    2.9680   63.6682 C.ar    1  ZINC001362587626    0.1200
     20 O20       -10.1810    3.9643   64.5934 O.3     1  ZINC001362587626   -0.2800
     21 C21       -11.4408    4.5338   64.9550 C.3     1  ZINC001362587626    0.0100
     22 C22       -12.4363    3.5174   65.5453 C.3     1  ZINC001362587626    0.0200
     23 O23       -11.8895    3.8956   66.8246 O.3     1  ZINC001362587626   -0.3700
     24 C24       -11.4514    5.1848   66.3510 C.3     1  ZINC001362587626    0.0400
     25 C25        -9.5530    1.7676   63.9311 C.ar    1  ZINC001362587626   -0.1300
     26 C26        -9.5727    0.7537   62.9939 C.ar    1  ZINC001362587626   -0.0800
     27 H27       -12.6309   -2.9670   60.5521 H       1  ZINC001362587626    0.0700
     28 H28       -13.5696   -1.9298   59.4514 H       1  ZINC001362587626    0.0800
     29 H29       -12.6807   -3.3326   58.8108 H       1  ZINC001362587626    0.0800
     30 H30        -9.7651   -2.5115   60.3211 H       1  ZINC001362587626    0.4100
     31 H31        -7.9149   -3.6220   59.3916 H       1  ZINC001362587626    0.1500
     32 H32        -8.7811   -5.0241   58.7192 H       1  ZINC001362587626    0.1400
     33 H33        -5.6681   -3.8761   58.0636 H       1  ZINC001362587626    0.2400
     34 H34        -9.4104   -0.4652   60.5111 H       1  ZINC001362587626    0.4100
     35 H35       -11.3858    2.2850   60.5826 H       1  ZINC001362587626    0.1300
     36 H36       -11.3578    4.0871   62.2582 H       1  ZINC001362587626    0.1400
     37 H37       -11.8638    5.1635   64.1723 H       1  ZINC001362587626    0.0900
     38 H38       -13.4817    3.7961   65.4128 H       1  ZINC001362587626    0.1000
     39 H39       -12.2298    2.4844   65.2655 H       1  ZINC001362587626    0.1000
     40 H40       -10.4638    5.4744   66.7101 H       1  ZINC001362587626    0.1000
     41 H41       -12.1960    5.9727   66.4645 H       1  ZINC001362587626    0.1000
     42 H42        -9.0394    1.6248   64.8704 H       1  ZINC001362587626    0.1400
     43 H43        -9.0719   -0.1811   63.1988 H       1  ZINC001362587626    0.1500
@<TRIPOS>BOND
     1     1     2    1
     2     1    27    1
     3     1    28    1
     4     1    29    1
     5     2     3    1
     6     2     4    1
     7     2    13    1
     8     4     5   am
     9     4    30    1
    10     5     6    2
    11     5     7    1
    12     7     8    1
    13     7    31    1
    14     7    32    1
    15     8    12    1
    16     8     9    1
    17     9    10    2
    18     9    33    1
    19    10    11    1
    20    11    12    2
    21    13    14    2
    22    13    15   am
    23    15    16    1
    24    15    34    1
    25    16    26   ar
    26    16    17   ar
    27    17    18   ar
    28    17    35    1
    29    18    19   ar
    30    18    36    1
    31    19    20    1
    32    19    25   ar
    33    20    21    1
    34    21    24    1
    35    21    22    1
    36    21    37    1
    37    22    23    1
    38    22    38    1
    39    22    39    1
    40    23    24    1
    41    24    40    1
    42    24    41    1
    43    25    26   ar
    44    25    42    1
    45    26    43    1
@<TRIPOS>SUBSTRUCTURE
     1 ZINC001362587626        1 TEMP              0 ****  ****    0 ROOT


##########                                Name:    ZINC000463741321
##########                DOCK_Rotatable_Bonds:                   7
##########                         Heavy_Atoms:                  26
##########                    Molecular_Weight:             354.467
##########                DOCK_Rotatable_Bonds:                   7
##########                       Formal_Charge:         -6.4075e-07
##########                     HBond_Acceptors:                   4
##########                        HBond_Donors:                   1
##########                         Heavy_Atoms:                  26
##########                          Grid_Score:          -32.935196
##########                     Grid_vdw_energy:          -33.697311
##########                      Grid_es_energy:            0.762117
##########           Internal_energy_repulsive:           22.108101

@<TRIPOS>MOLECULE
ZINC000463741321
 53 55 1 0 0
SMALL
USER_CHARGES


@<TRIPOS>ATOM
      1 C1        -12.8261   -2.3652   59.3113 C.3     1  ZINC000463741321   -0.1500
      2 C2        -11.3371   -2.1481   59.5886 C.3     1  ZINC000463741321   -0.1100
      3 H3        -11.0075   -2.8391   60.3645 H       1  ZINC000463741321    0.1000
      4 C4        -10.5380   -2.3999   58.3084 C.3     1  ZINC000463741321   -0.0900
      5 C5         -9.9623   -3.8172   58.3369 C.3     1  ZINC000463741321   -0.0800
      6 C6         -8.5244   -3.7844   57.8872 C.ar    1  ZINC000463741321   -0.1200
      7 C7         -7.5123   -3.6439   58.8173 C.ar    1  ZINC000463741321   -0.0900
      8 C8         -6.1929   -3.6138   58.4050 C.ar    1  ZINC000463741321   -0.1300
      9 C9         -5.8848   -3.7237   57.0620 C.ar    1  ZINC000463741321   -0.1000
     10 C10        -6.8955   -3.8639   56.1297 C.ar    1  ZINC000463741321   -0.1500
     11 C11        -8.2165   -3.9009   56.5420 C.ar    1  ZINC000463741321    0.1000
     12 F12        -9.2053   -4.0379   55.6316 F       1  ZINC000463741321   -0.1400
     13 C13       -11.1134   -0.7311   60.0500 C.2     1  ZINC000463741321    0.5200
     14 O14       -10.3225   -0.0208   59.4659 O.2     1  ZINC000463741321   -0.5300
     15 N15       -11.7921   -0.2529   61.1116 N.am    1  ZINC000463741321   -0.7300
     16 C16       -11.5733    1.1242   61.5612 C.3     1  ZINC000463741321    0.1500
     17 H17       -11.0839    1.6919   60.7699 H       1  ZINC000463741321    0.1000
     18 C18       -12.9193    1.7721   61.8976 C.3     1  ZINC000463741321   -0.1300
     19 C19       -12.6771    3.1897   62.4233 C.3     1  ZINC000463741321   -0.1200
     20 C20       -11.7605    3.1251   63.6471 C.3     1  ZINC000463741321    0.0600
     21 N21       -10.4863    2.4982   63.2731 N.3     1  ZINC000463741321   -0.4800
     22 C22        -9.5771    2.5419   64.3325 C.ar    1  ZINC000463741321    0.1100
     23 C23        -8.9493    3.7365   64.6623 C.ar    1  ZINC000463741321   -0.1700
     24 C24        -8.0513    3.7763   65.7107 C.ar    1  ZINC000463741321   -0.0900
     25 C25        -7.7763    2.6287   66.4316 C.ar    1  ZINC000463741321   -0.1500
     26 C26        -8.3995    1.4380   66.1060 C.ar    1  ZINC000463741321   -0.0900
     27 C27        -9.3028    1.3923   65.0624 C.ar    1  ZINC000463741321   -0.1400
     28 C28       -10.6878    1.1195   62.8093 C.3     1  ZINC000463741321    0.0500
     29 H29       -13.1557   -1.6741   58.5355 H       1  ZINC000463741321    0.0600
     30 H30       -12.9879   -3.3901   58.9777 H       1  ZINC000463741321    0.0700
     31 H31       -13.3954   -2.1858   60.2234 H       1  ZINC000463741321    0.0600
     32 H32       -11.1930   -2.2912   57.4439 H       1  ZINC000463741321    0.0700
     33 H33        -9.7239   -1.6782   58.2404 H       1  ZINC000463741321    0.0700
     34 H34       -10.0166   -4.2110   59.3519 H       1  ZINC000463741321    0.0800
     35 H35       -10.5378   -4.4567   57.6678 H       1  ZINC000463741321    0.0800
     36 H36        -7.7519   -3.5571   59.8667 H       1  ZINC000463741321    0.1300
     37 H37        -5.4025   -3.5038   59.1327 H       1  ZINC000463741321    0.1300
     38 H38        -4.8538   -3.6997   56.7410 H       1  ZINC000463741321    0.1300
     39 H39        -6.6545   -3.9491   55.0804 H       1  ZINC000463741321    0.1400
     40 H40       -12.4255   -0.8204   61.5779 H       1  ZINC000463741321    0.4000
     41 H41       -13.5364    1.8168   61.0002 H       1  ZINC000463741321    0.0700
     42 H42       -13.4268    1.1823   62.6609 H       1  ZINC000463741321    0.0600
     43 H43       -12.2047    3.7903   61.6460 H       1  ZINC000463741321    0.0800
     44 H44       -13.6286    3.6409   62.7048 H       1  ZINC000463741321    0.0800
     45 H45       -11.5746    4.1341   64.0152 H       1  ZINC000463741321    0.0900
     46 H46       -12.2395    2.5359   64.4290 H       1  ZINC000463741321    0.0500
     47 H47        -9.1632    4.6329   64.0991 H       1  ZINC000463741321    0.1200
     48 H48        -7.5629    4.7047   65.9676 H       1  ZINC000463741321    0.1200
     49 H49        -7.0730    2.6625   67.2506 H       1  ZINC000463741321    0.1200
     50 H50        -8.1824    0.5434   66.6711 H       1  ZINC000463741321    0.1200
     51 H51        -9.7894    0.4620   64.8088 H       1  ZINC000463741321    0.1300
     52 H52       -11.1719    0.5392   63.5948 H       1  ZINC000463741321    0.0500
     53 H53        -9.7231    0.6723   62.5696 H       1  ZINC000463741321    0.0900
@<TRIPOS>BOND
     1     1     2    1
     2     1    29    1
     3     1    30    1
     4     1    31    1
     5     2     3    1
     6     2     4    1
     7     2    13    1
     8     4     5    1
     9     4    32    1
    10     4    33    1
    11     5     6    1
    12     5    34    1
    13     5    35    1
    14     6    11   ar
    15     6     7   ar
    16     7     8   ar
    17     7    36    1
    18     8     9   ar
    19     8    37    1
    20     9    10   ar
    21     9    38    1
    22    10    11   ar
    23    10    39    1
    24    11    12    1
    25    13    14    2
    26    13    15   am
    27    15    16    1
    28    15    40    1
    29    16    17    1
    30    16    28    1
    31    16    18    1
    32    18    19    1
    33    18    41    1
    34    18    42    1
    35    19    20    1
    36    19    43    1
    37    19    44    1
    38    20    21    1
    39    20    45    1
    40    20    46    1
    41    21    22    1
    42    21    28    1
    43    22    27   ar
    44    22    23   ar
    45    23    24   ar
    46    23    47    1
    47    24    25   ar
    48    24    48    1
    49    25    26   ar
    50    25    49    1
    51    26    27   ar
    52    26    50    1
    53    27    51    1
    54    28    52    1
    55    28    53    1
@<TRIPOS>SUBSTRUCTURE
     1 ZINC000463741321        1 TEMP              0 ****  ****    0 ROOT


##########                                Name:    ZINC000546142192
##########                DOCK_Rotatable_Bonds:                  12
##########                         Heavy_Atoms:                  31
##########                    Molecular_Weight:             420.511
##########                DOCK_Rotatable_Bonds:                  12
##########                       Formal_Charge:          -0.0599997
##########                     HBond_Acceptors:                   7
##########                        HBond_Donors:                   2
##########                         Heavy_Atoms:                  31
##########                          Grid_Score:          -32.929871
##########                     Grid_vdw_energy:          -29.803524
##########                      Grid_es_energy:           -3.126347
##########           Internal_energy_repulsive:           37.660412

@<TRIPOS>MOLECULE
ZINC000546142192
 59 61 1 0 0
SMALL
USER_CHARGES


@<TRIPOS>ATOM
      1 C1         -6.7134    5.3184   63.9514 C.3     1  ZINC000546142192    0.0300
      2 O2         -7.5532    4.5401   64.8445 O.3     1  ZINC000546142192   -0.3600
      3 C3         -8.7856    4.2337   64.4097 C.2     1  ZINC000546142192    0.4600
      4 O4         -9.1549    4.6140   63.3239 O.2     1  ZINC000546142192   -0.5100
      5 C5         -9.7084    3.4155   65.2757 C.3     1  ZINC000546142192   -0.0800
      6 H6         -9.1517    2.5922   65.7231 H       1  ZINC000546142192    0.1100
      7 C7        -10.2877    4.3000   66.3815 C.3     1  ZINC000546142192   -0.1500
      8 C8        -10.8473    2.8560   64.4207 C.3     1  ZINC000546142192   -0.0600
      9 C9        -10.2892    1.8799   63.4171 C.ar    1  ZINC000546142192   -0.1000
     10 C10       -10.6328    1.9906   62.0823 C.ar    1  ZINC000546142192   -0.0900
     11 C11       -10.1228    1.0979   61.1601 C.ar    1  ZINC000546142192   -0.1200
     12 C12        -9.2639    0.0885   61.5746 C.ar    1  ZINC000546142192    0.1600
     13 N13        -8.7450   -0.8173   60.6427 N.am    1  ZINC000546142192   -0.6900
     14 C14        -9.4745   -1.8848   60.2621 C.2     1  ZINC000546142192    0.7100
     15 O15       -10.5834   -2.0607   60.7285 O.2     1  ZINC000546142192   -0.5700
     16 N16        -8.9747   -2.7572   59.3646 N.am    1  ZINC000546142192   -0.7400
     17 C17        -9.7671   -3.9184   58.9522 C.3     1  ZINC000546142192    0.2300
     18 C18       -10.3862   -3.6510   57.6045 C.2     1  ZINC000546142192    0.1800
     19 N19        -9.8190   -3.8703   56.4499 N.2     1  ZINC000546142192   -0.4700
     20 C20       -10.6618   -3.5161   55.4685 C.2     1  ZINC000546142192   -0.0300
     21 C21       -11.7944   -3.0599   56.0365 C.2     1  ZINC000546142192   -0.0400
     22 N22       -11.6222   -3.1502   57.3915 N.pl3   1  ZINC000546142192   -0.4500
     23 C23       -12.5939   -2.7672   58.4188 C.3     1  ZINC000546142192    0.1100
     24 C24       -13.9894   -3.2338   58.0000 C.3     1  ZINC000546142192   -0.0900
     25 C25       -14.5589   -2.2710   56.9901 C.ar    1  ZINC000546142192   -0.0900
     26 C26       -14.1919   -0.9386   57.0218 C.ar    1  ZINC000546142192   -0.1100
     27 C27       -14.7143   -0.0557   56.0953 C.ar    1  ZINC000546142192   -0.1200
     28 C28       -15.6033   -0.5052   55.1369 C.ar    1  ZINC000546142192   -0.1200
     29 C29       -15.9696   -1.8377   55.1046 C.ar    1  ZINC000546142192   -0.1200
     30 C30       -15.4439   -2.7216   56.0284 C.ar    1  ZINC000546142192   -0.1100
     31 C31        -8.9207   -0.0199   62.9159 C.ar    1  ZINC000546142192   -0.1500
     32 C32        -9.4301    0.8791   63.8323 C.ar    1  ZINC000546142192   -0.0900
     33 H33        -7.1951    6.2729   63.7398 H       1  ZINC000546142192    0.0600
     34 H34        -5.7472    5.4957   64.4237 H       1  ZINC000546142192    0.1000
     35 H35        -6.5678    4.7706   63.0204 H       1  ZINC000546142192    0.0600
     36 H36       -10.8445    5.1233   65.9340 H       1  ZINC000546142192    0.0600
     37 H37       -10.9552    3.7081   67.0078 H       1  ZINC000546142192    0.0800
     38 H38        -9.4764    4.6985   66.9905 H       1  ZINC000546142192    0.0700
     39 H39       -11.5664    2.3465   65.0620 H       1  ZINC000546142192    0.0800
     40 H40       -11.3429    3.6729   63.8961 H       1  ZINC000546142192    0.0800
     41 H41       -11.3011    2.7756   61.7606 H       1  ZINC000546142192    0.1300
     42 H42       -10.3918    1.1846   60.1178 H       1  ZINC000546142192    0.1400
     43 H43        -7.8602   -0.6770   60.2707 H       1  ZINC000546142192    0.4100
     44 H44        -8.0905   -2.6162   58.9916 H       1  ZINC000546142192    0.4000
     45 H45        -9.1216   -4.7945   58.8880 H       1  ZINC000546142192    0.0800
     46 H46       -10.5541   -4.0997   59.6841 H       1  ZINC000546142192    0.1000
     47 H47       -10.4664   -3.5846   54.4085 H       1  ZINC000546142192    0.1700
     48 H48       -12.6716   -2.6965   55.5219 H       1  ZINC000546142192    0.1800
     49 H49       -12.3238   -3.2336   59.3663 H       1  ZINC000546142192    0.1000
     50 H50       -12.5925   -1.6834   58.5341 H       1  ZINC000546142192    0.0900
     51 H51       -13.9227   -4.2276   57.5573 H       1  ZINC000546142192    0.0800
     52 H52       -14.6387   -3.2687   58.8749 H       1  ZINC000546142192    0.0800
     53 H53       -13.4974   -0.5875   57.7706 H       1  ZINC000546142192    0.1200
     54 H54       -14.4281    0.9854   56.1205 H       1  ZINC000546142192    0.1200
     55 H55       -16.0120    0.1849   54.4135 H       1  ZINC000546142192    0.1200
     56 H56       -16.6644   -2.1888   54.3560 H       1  ZINC000546142192    0.1200
     57 H57       -15.7300   -3.7626   56.0033 H       1  ZINC000546142192    0.1200
     58 H58        -8.2529   -0.8039   63.2413 H       1  ZINC000546142192    0.1300
     59 H59        -9.1632    0.7956   64.8756 H       1  ZINC000546142192    0.1300
@<TRIPOS>BOND
     1     1     2    1
     2     1    33    1
     3     1    34    1
     4     1    35    1
     5     2     3    1
     6     3     4    2
     7     3     5    1
     8     5     6    1
     9     5     7    1
    10     5     8    1
    11     7    36    1
    12     7    37    1
    13     7    38    1
    14     8     9    1
    15     8    39    1
    16     8    40    1
    17     9    32   ar
    18     9    10   ar
    19    10    11   ar
    20    10    41    1
    21    11    12   ar
    22    11    42    1
    23    12    13    1
    24    12    31   ar
    25    13    14   am
    26    13    43    1
    27    14    15    2
    28    14    16   am
    29    16    17    1
    30    16    44    1
    31    17    18    1
    32    17    45    1
    33    17    46    1
    34    18    22    1
    35    18    19    2
    36    19    20    1
    37    20    21    2
    38    20    47    1
    39    21    22    1
    40    21    48    1
    41    22    23    1
    42    23    24    1
    43    23    49    1
    44    23    50    1
    45    24    25    1
    46    24    51    1
    47    24    52    1
    48    25    30   ar
    49    25    26   ar
    50    26    27   ar
    51    26    53    1
    52    27    28   ar
    53    27    54    1
    54    28    29   ar
    55    28    55    1
    56    29    30   ar
    57    29    56    1
    58    30    57    1
    59    31    32   ar
    60    31    58    1
    61    32    59    1
@<TRIPOS>SUBSTRUCTURE
     1 ZINC000546142192        1 TEMP              0 ****  ****    0 ROOT


##########                                Name:    ZINC000523863446
##########                DOCK_Rotatable_Bonds:                  10
##########                         Heavy_Atoms:                  29
##########                    Molecular_Weight:             396.533
##########                DOCK_Rotatable_Bonds:                  10
##########                       Formal_Charge:          -0.0200008
##########                     HBond_Acceptors:                   6
##########                        HBond_Donors:                   1
##########                         Heavy_Atoms:                  29
##########                          Grid_Score:          -32.892750
##########                     Grid_vdw_energy:          -29.380756
##########                      Grid_es_energy:           -3.511992
##########           Internal_energy_repulsive:           25.404348

@<TRIPOS>MOLECULE
ZINC000523863446
 61 63 1 0 0
SMALL
USER_CHARGES


@<TRIPOS>ATOM
      1 C1        -12.4350   -3.2936   57.1735 C.3     1  ZINC000523863446   -0.1700
      2 C2        -11.5508   -2.3660   58.0095 C.3     1  ZINC000523863446    0.1500
      3 H3        -11.4271   -1.4160   57.4896 H       1  ZINC000523863446    0.1300
      4 C4        -12.1997   -2.1253   59.3481 C.2     1  ZINC000523863446    0.5100
      5 O5        -11.8669   -2.7841   60.3105 O.2     1  ZINC000523863446   -0.5100
      6 N6        -13.1499   -1.1781   59.4758 N.am    1  ZINC000523863446   -0.6000
      7 C7        -13.5533   -0.3838   58.3129 C.3     1  ZINC000523863446    0.0700
      8 C8        -13.7795   -0.9430   60.7777 C.3     1  ZINC000523863446    0.1000
      9 C9        -12.9857    0.0858   61.5409 C.2     1  ZINC000523863446    0.5000
     10 O10       -13.3257    0.4060   62.6603 O.2     1  ZINC000523863446   -0.5200
     11 N11       -11.8982    0.6503   60.9796 N.am    1  ZINC000523863446   -0.7200
     12 C12       -11.1256    1.6492   61.7222 C.3     1  ZINC000523863446    0.1900
     13 H13       -11.8048    2.2856   62.2896 H       1  ZINC000523863446    0.1000
     14 C14       -10.3237    2.5064   60.7409 C.3     1  ZINC000523863446   -0.1200
     15 C15       -11.2310    3.5858   60.1472 C.3     1  ZINC000523863446   -0.0900
     16 C16       -11.0438    4.8920   60.9217 C.3     1  ZINC000523863446   -0.1200
     17 C17       -11.9511    5.9715   60.3280 C.3     1  ZINC000523863446   -0.1200
     18 C18       -11.5863    6.1930   58.8587 C.3     1  ZINC000523863446   -0.1200
     19 C19       -11.7734    4.8868   58.0843 C.3     1  ZINC000523863446   -0.1200
     20 C20       -10.8661    3.8074   58.6779 C.3     1  ZINC000523863446   -0.1100
     21 C21       -10.1817    0.9525   62.6682 C.ar    1  ZINC000523863446   -0.0900
     22 C22       -10.1482    1.3138   64.0021 C.ar    1  ZINC000523863446   -0.1100
     23 C23        -9.2824    0.6747   64.8697 C.ar    1  ZINC000523863446   -0.1200
     24 C24        -8.4503   -0.3259   64.4034 C.ar    1  ZINC000523863446   -0.1200
     25 C25        -8.4844   -0.6878   63.0698 C.ar    1  ZINC000523863446   -0.1200
     26 C26        -9.3533   -0.0517   62.2031 C.ar    1  ZINC000523863446   -0.1000
     27 N27       -10.2395   -2.9887   58.2072 N.pl3   1  ZINC000523863446   -0.3600
     28 C28        -9.4032   -2.7664   59.2428 C.2     1  ZINC000523863446    0.0600
     29 C29        -8.3021   -3.5303   59.0549 C.2     1  ZINC000523863446   -0.2700
     30 C30        -8.4713   -4.2436   57.8637 C.2     1  ZINC000523863446    0.0500
     31 N31        -9.6350   -3.9243   57.3579 N.2     1  ZINC000523863446   -0.2900
     32 H32       -12.5586   -4.2436   57.6934 H       1  ZINC000523863446    0.0700
     33 H33       -13.4105   -2.8303   57.0264 H       1  ZINC000523863446    0.1000
     34 H34       -11.9657   -3.4677   56.2052 H       1  ZINC000523863446    0.0800
     35 H35       -14.3763   -0.8818   57.8004 H       1  ZINC000523863446    0.0700
     36 H36       -13.8749    0.6044   58.6418 H       1  ZINC000523863446    0.0800
     37 H37       -12.7088   -0.2828   57.6313 H       1  ZINC000523863446    0.0800
     38 H38       -14.7966   -0.5803   60.6291 H       1  ZINC000523863446    0.1100
     39 H39       -13.8048   -1.8748   61.3426 H       1  ZINC000523863446    0.1100
     40 H40       -11.6271    0.3951   60.0839 H       1  ZINC000523863446    0.4000
     41 H41        -9.4929    2.9783   61.2655 H       1  ZINC000523863446    0.0800
     42 H42        -9.9368    1.8763   59.9401 H       1  ZINC000523863446    0.0700
     43 H43       -12.2707    3.2666   60.2192 H       1  ZINC000523863446    0.0700
     44 H44       -11.3037    4.7342   61.9683 H       1  ZINC000523863446    0.0600
     45 H45       -10.0041    5.2113   60.8496 H       1  ZINC000523863446    0.0600
     46 H46       -12.9908    5.6522   60.4000 H       1  ZINC000523863446    0.0600
     47 H47       -11.8178    6.9020   60.8797 H       1  ZINC000523863446    0.0600
     48 H48       -12.2326    6.9620   58.4358 H       1  ZINC000523863446    0.0600
     49 H49       -10.5465    6.5122   58.7867 H       1  ZINC000523863446    0.0600
     50 H50       -12.8132    4.5675   58.1563 H       1  ZINC000523863446    0.0600
     51 H51       -11.5135    5.0446   57.0375 H       1  ZINC000523863446    0.0600
     52 H52        -9.8265    4.1266   58.6059 H       1  ZINC000523863446    0.0600
     53 H53       -10.9995    2.8769   58.1262 H       1  ZINC000523863446    0.0600
     54 H54       -10.7983    2.0955   64.3662 H       1  ZINC000523863446    0.1200
     55 H55        -9.2557    0.9574   65.9117 H       1  ZINC000523863446    0.1200
     56 H56        -7.7733   -0.8247   65.0813 H       1  ZINC000523863446    0.1200
     57 H57        -7.8341   -1.4693   62.7055 H       1  ZINC000523863446    0.1200
     58 H58        -9.3800   -0.3344   61.1610 H       1  ZINC000523863446    0.1200
     59 H59        -9.5807   -2.0985   60.0726 H       1  ZINC000523863446    0.1700
     60 H60        -7.4440   -3.5798   59.7088 H       1  ZINC000523863446    0.1500
     61 H61        -7.7656   -4.9414   57.4378 H       1  ZINC000523863446    0.1800
@<TRIPOS>BOND
     1     1     2    1
     2     1    32    1
     3     1    33    1
     4     1    34    1
     5     2     3    1
     6     2     4    1
     7     2    27    1
     8     4     5    2
     9     4     6   am
    10     6     7    1
    11     6     8    1
    12     7    35    1
    13     7    36    1
    14     7    37    1
    15     8     9    1
    16     8    38    1
    17     8    39    1
    18     9    10    2
    19     9    11   am
    20    11    12    1
    21    11    40    1
    22    12    13    1
    23    12    14    1
    24    12    21    1
    25    14    15    1
    26    14    41    1
    27    14    42    1
    28    15    20    1
    29    15    16    1
    30    15    43    1
    31    16    17    1
    32    16    44    1
    33    16    45    1
    34    17    18    1
    35    17    46    1
    36    17    47    1
    37    18    19    1
    38    18    48    1
    39    18    49    1
    40    19    20    1
    41    19    50    1
    42    19    51    1
    43    20    52    1
    44    20    53    1
    45    21    26   ar
    46    21    22   ar
    47    22    23   ar
    48    22    54    1
    49    23    24   ar
    50    23    55    1
    51    24    25   ar
    52    24    56    1
    53    25    26   ar
    54    25    57    1
    55    26    58    1
    56    27    31    1
    57    27    28    1
    58    28    29    2
    59    28    59    1
    60    29    30    1
    61    29    60    1
    62    30    31    2
    63    30    61    1
@<TRIPOS>SUBSTRUCTURE
     1 ZINC000523863446        1 TEMP              0 ****  ****    0 ROOT


##########                                Name:    ZINC000375302598
##########                DOCK_Rotatable_Bonds:                   8
##########                         Heavy_Atoms:                  27
##########                    Molecular_Weight:             368.479
##########                DOCK_Rotatable_Bonds:                   8
##########                       Formal_Charge:               -0.02
##########                     HBond_Acceptors:                   6
##########                        HBond_Donors:                   1
##########                         Heavy_Atoms:                  27
##########                          Grid_Score:          -32.868828
##########                     Grid_vdw_energy:          -33.180252
##########                      Grid_es_energy:            0.311424
##########           Internal_energy_repulsive:           12.042696

@<TRIPOS>MOLECULE
ZINC000375302598
 55 58 1 0 0
SMALL
USER_CHARGES


@<TRIPOS>ATOM
      1 C1         -5.9488   -3.7560   57.3263 C.3     1  ZINC000375302598   -0.1500
      2 C2         -7.0930   -4.3728   56.5192 C.3     1  ZINC000375302598   -0.0300
      3 C3         -8.4058   -4.0625   57.1911 C.2     1  ZINC000375302598    0.1800
      4 N4         -8.5709   -3.6040   58.4084 N.2     1  ZINC000375302598   -0.4700
      5 C5         -9.9003   -3.4812   58.5718 C.2     1  ZINC000375302598    0.1800
      6 C6        -10.6051   -2.9893   59.8097 C.3     1  ZINC000375302598    0.1500
      7 N7        -11.5948   -1.9697   59.4371 N.3     1  ZINC000375302598   -0.5300
      8 C8        -12.9621   -2.4583   59.6567 C.3     1  ZINC000375302598    0.0500
      9 C9        -13.9639   -1.4313   59.1242 C.3     1  ZINC000375302598   -0.1100
     10 C10       -13.7555   -0.0988   59.8492 C.3     1  ZINC000375302598   -0.1300
     11 C11       -12.3103    0.3639   59.6449 C.3     1  ZINC000375302598    0.1500
     12 H12       -12.1286    0.5317   58.5833 H       1  ZINC000375302598    0.1000
     13 N13       -12.0868    1.6099   60.3822 N.am    1  ZINC000375302598   -0.7300
     14 C14       -11.4233    2.6281   59.7995 C.2     1  ZINC000375302598    0.5200
     15 O15       -11.0100    2.5122   58.6651 O.2     1  ZINC000375302598   -0.5300
     16 C16       -11.1950    3.9104   60.5573 C.3     1  ZINC000375302598   -0.1100
     17 C17       -10.3959    3.6162   61.8285 C.3     1  ZINC000375302598   -0.1200
     18 H18       -10.9387    3.7435   62.7650 H       1  ZINC000375302598    0.1200
     19 C19        -8.9060    3.9641   61.8225 C.3     1  ZINC000375302598   -0.1700
     20 C20        -9.3508    2.5006   61.7636 C.3     1  ZINC000375302598   -0.1100
     21 H21        -9.2324    1.9763   60.8153 H       1  ZINC000375302598    0.1100
     22 C22        -9.1500    1.6619   62.9994 C.ar    1  ZINC000375302598   -0.0500
     23 C23        -8.8924    0.3087   62.8820 C.ar    1  ZINC000375302598   -0.1200
     24 C24        -8.7081   -0.4606   64.0155 C.ar    1  ZINC000375302598   -0.1200
     25 C25        -8.7809    0.1230   65.2664 C.ar    1  ZINC000375302598   -0.1300
     26 C26        -9.0376    1.4763   65.3838 C.ar    1  ZINC000375302598   -0.1200
     27 C27        -9.2176    2.2465   64.2501 C.ar    1  ZINC000375302598   -0.1100
     28 C28       -11.3564   -0.7152   60.1622 C.3     1  ZINC000375302598    0.0500
     29 N29       -10.4653   -3.8643   57.4661 N.2     1  ZINC000375302598   -0.3800
     30 O30        -9.6239   -4.1967   56.6580 O.3     1  ZINC000375302598    0.0800
     31 H31        -5.9488   -4.1726   58.3336 H       1  ZINC000375302598    0.0600
     32 H32        -4.9993   -3.9803   56.8403 H       1  ZINC000375302598    0.0800
     33 H33        -6.0831   -2.6756   57.3799 H       1  ZINC000375302598    0.0600
     34 H34        -7.0930   -3.9561   55.5120 H       1  ZINC000375302598    0.1100
     35 H35        -6.9587   -5.4531   56.4656 H       1  ZINC000375302598    0.1000
     36 H36       -11.1091   -3.8241   60.2968 H       1  ZINC000375302598    0.0700
     37 H37        -9.8765   -2.5553   60.4945 H       1  ZINC000375302598    0.1100
     38 H38       -13.0982   -3.4043   59.1324 H       1  ZINC000375302598    0.0800
     39 H39       -13.1274   -2.6076   60.7236 H       1  ZINC000375302598    0.0400
     40 H40       -13.8082   -1.2918   58.0544 H       1  ZINC000375302598    0.0700
     41 H41       -14.9789   -1.7873   59.3014 H       1  ZINC000375302598    0.0700
     42 H42       -14.4380    0.6477   59.4427 H       1  ZINC000375302598    0.0700
     43 H43       -13.9492   -0.2293   60.9139 H       1  ZINC000375302598    0.0600
     44 H44       -12.4164    1.7021   61.2898 H       1  ZINC000375302598    0.4000
     45 H45       -10.6383    4.6081   59.9315 H       1  ZINC000375302598    0.1000
     46 H46       -12.1556    4.3500   60.8257 H       1  ZINC000375302598    0.1000
     47 H47        -8.4950    4.4025   60.9132 H       1  ZINC000375302598    0.1000
     48 H48        -8.4685    4.3198   62.7554 H       1  ZINC000375302598    0.1000
     49 H49        -8.8354   -0.1473   61.9046 H       1  ZINC000375302598    0.1200
     50 H50        -8.5076   -1.5179   63.9237 H       1  ZINC000375302598    0.1200
     51 H51        -8.6376   -0.4783   66.1521 H       1  ZINC000375302598    0.1200
     52 H52        -9.0948    1.9322   66.3611 H       1  ZINC000375302598    0.1200
     53 H53        -9.4182    3.3038   64.3419 H       1  ZINC000375302598    0.1200
     54 H54       -11.5292   -0.8726   61.2269 H       1  ZINC000375302598    0.0400
     55 H55       -10.3264   -0.3950   60.0052 H       1  ZINC000375302598    0.0900
@<TRIPOS>BOND
     1     1     2    1
     2     1    31    1
     3     1    32    1
     4     1    33    1
     5     2     3    1
     6     2    34    1
     7     2    35    1
     8     3    30    1
     9     3     4    2
    10     4     5    1
    11     5     6    1
    12     5    29    2
    13     6     7    1
    14     6    36    1
    15     6    37    1
    16     7    28    1
    17     7     8    1
    18     8     9    1
    19     8    38    1
    20     8    39    1
    21     9    10    1
    22     9    40    1
    23     9    41    1
    24    10    11    1
    25    10    42    1
    26    10    43    1
    27    11    12    1
    28    11    13    1
    29    11    28    1
    30    13    14   am
    31    13    44    1
    32    14    15    2
    33    14    16    1
    34    16    17    1
    35    16    45    1
    36    16    46    1
    37    17    18    1
    38    17    20    1
    39    17    19    1
    40    19    20    1
    41    19    47    1
    42    19    48    1
    43    20    21    1
    44    20    22    1
    45    22    27   ar
    46    22    23   ar
    47    23    24   ar
    48    23    49    1
    49    24    25   ar
    50    24    50    1
    51    25    26   ar
    52    25    51    1
    53    26    27   ar
    54    26    52    1
    55    27    53    1
    56    28    54    1
    57    28    55    1
    58    29    30    1
@<TRIPOS>SUBSTRUCTURE
     1 ZINC000375302598        1 TEMP              0 ****  ****    0 ROOT


##########                                Name:    ZINC001120957943
##########                DOCK_Rotatable_Bonds:                   4
##########                         Heavy_Atoms:                  27
##########                    Molecular_Weight:             396.802
##########                DOCK_Rotatable_Bonds:                   4
##########                       Formal_Charge:          -0.0199996
##########                     HBond_Acceptors:                  10
##########                        HBond_Donors:                   0
##########                         Heavy_Atoms:                  27
##########                          Grid_Score:          -32.815746
##########                     Grid_vdw_energy:          -32.091290
##########                      Grid_es_energy:           -0.724455
##########           Internal_energy_repulsive:            9.061686

@<TRIPOS>MOLECULE
ZINC001120957943
 43 46 1 0 0
SMALL
USER_CHARGES


@<TRIPOS>ATOM
      1 C1        -15.3594   -3.2848   58.5009 C.3     1  ZINC001120957943    0.0900
      2 N2        -14.1262   -2.8209   59.1415 N.pl3   1  ZINC001120957943   -0.6000
      3 C3        -14.1901   -2.0845   60.4064 C.3     1  ZINC001120957943    0.2200
      4 C4        -14.2976   -0.6083   60.1233 C.2     1  ZINC001120957943    0.1600
      5 N5        -15.3636    0.0289   59.7115 N.2     1  ZINC001120957943   -0.2500
      6 N6        -15.0955    1.2821   59.5731 N.2     1  ZINC001120957943   -0.2800
      7 C7        -13.8543    1.4967   59.8882 C.2     1  ZINC001120957943    0.1700
      8 C8        -13.0942    2.7991   59.8775 C.3     1  ZINC001120957943   -0.0300
      9 C9        -11.5948    2.4774   59.9364 C.3     1  ZINC001120957943   -0.1300
     10 C10       -11.3371    1.4695   61.0601 C.3     1  ZINC001120957943   -0.1500
     11 H11       -11.8048    1.8229   61.9791 H       1  ZINC001120957943    0.1300
     12 C12        -9.8298    1.3244   61.2785 C.3     1  ZINC001120957943    0.4600
     13 F13        -9.3002    2.5476   61.7033 F       1  ZINC001120957943   -0.1700
     14 F14        -9.5915    0.3494   62.2533 F       1  ZINC001120957943   -0.1800
     15 F15        -9.2192    0.9434   60.0789 F       1  ZINC001120957943   -0.1800
     16 C16       -11.9302    0.1089   60.6760 C.3     1  ZINC001120957943    0.1100
     17 N17       -13.3161    0.3052   60.2520 N.pl3   1  ZINC001120957943   -0.4700
     18 C18       -12.8982   -3.0788   58.5504 C.ar    1  ZINC001120957943    0.3700
     19 C19       -12.8349   -3.3907   57.1810 C.ar    1  ZINC001120957943    0.0500
     20 N20       -11.6830   -3.6370   56.6049 N.ar    1  ZINC001120957943   -0.3900
     21 C21       -10.5547   -3.5920   57.3245 C.ar    1  ZINC001120957943    0.0400
     22 C22        -9.3079   -3.8514   56.7308 C.ar    1  ZINC001120957943   -0.0600
     23 C23        -8.1757   -3.7983   57.4865 C.ar    1  ZINC001120957943   -0.0400
     24 Cl24       -6.6380   -4.1196   56.7478 Cl      1  ZINC001120957943   -0.0600
     25 C25        -8.2347   -3.4890   58.8450 C.ar    1  ZINC001120957943   -0.0800
     26 C26        -9.4249   -3.2322   59.4528 C.ar    1  ZINC001120957943   -0.0800
     27 C27       -10.6140   -3.2781   58.7050 C.ar    1  ZINC001120957943    0.1400
     28 N28       -11.7977   -3.0243   59.2765 N.ar    1  ZINC001120957943   -0.4700
     29 H29       -15.7288   -2.5148   57.8235 H       1  ZINC001120957943    0.0700
     30 H30       -15.1561   -4.1961   57.9386 H       1  ZINC001120957943    0.0800
     31 H31       -16.1107   -3.4885   59.2638 H       1  ZINC001120957943    0.0700
     32 H32       -15.0624   -2.4104   60.9729 H       1  ZINC001120957943    0.1200
     33 H33       -13.2874   -2.2786   60.9857 H       1  ZINC001120957943    0.1000
     34 H34       -13.3172    3.3478   58.9624 H       1  ZINC001120957943    0.1100
     35 H35       -13.3766    3.3971   60.7439 H       1  ZINC001120957943    0.1000
     36 H36       -11.2765    2.0511   58.9850 H       1  ZINC001120957943    0.0900
     37 H37       -11.0340    3.3915   60.1318 H       1  ZINC001120957943    0.1000
     38 H38       -11.3523   -0.3245   59.8597 H       1  ZINC001120957943    0.1000
     39 H39       -11.9053   -0.5574   61.5383 H       1  ZINC001120957943    0.1100
     40 H40       -13.7433   -3.4281   56.5983 H       1  ZINC001120957943    0.1700
     41 H41        -9.2475   -4.0921   55.6798 H       1  ZINC001120957943    0.1500
     42 H42        -7.3230   -3.4531   59.4230 H       1  ZINC001120957943    0.1400
     43 H43        -9.4557   -2.9943   60.5059 H       1  ZINC001120957943    0.1500
@<TRIPOS>BOND
     1     1     2    1
     2     1    29    1
     3     1    30    1
     4     1    31    1
     5     2     3    1
     6     2    18    1
     7     3     4    1
     8     3    32    1
     9     3    33    1
    10     4    17    1
    11     4     5    2
    12     5     6    1
    13     6     7    2
    14     7    17    1
    15     7     8    1
    16     8     9    1
    17     8    34    1
    18     8    35    1
    19     9    10    1
    20     9    36    1
    21     9    37    1
    22    10    11    1
    23    10    12    1
    24    10    16    1
    25    12    13    1
    26    12    14    1
    27    12    15    1
    28    16    17    1
    29    16    38    1
    30    16    39    1
    31    18    28   ar
    32    18    19   ar
    33    19    20   ar
    34    19    40    1
    35    20    21   ar
    36    21    27   ar
    37    21    22   ar
    38    22    23   ar
    39    22    41    1
    40    23    24    1
    41    23    25   ar
    42    25    26   ar
    43    25    42    1
    44    26    27   ar
    45    26    43    1
    46    27    28   ar
@<TRIPOS>SUBSTRUCTURE
     1 ZINC001120957943        1 TEMP              0 ****  ****    0 ROOT


##########                                Name:    ZINC000771225867
##########                DOCK_Rotatable_Bonds:                   9
##########                         Heavy_Atoms:                  23
##########                    Molecular_Weight:             355.802
##########                DOCK_Rotatable_Bonds:                   9
##########                       Formal_Charge:        -3.12924e-07
##########                     HBond_Acceptors:                   9
##########                        HBond_Donors:                   3
##########                         Heavy_Atoms:                  23
##########                          Grid_Score:          -32.666195
##########                     Grid_vdw_energy:          -32.348564
##########                      Grid_es_energy:           -0.317630
##########           Internal_energy_repulsive:           61.989002

@<TRIPOS>MOLECULE
ZINC000771225867
 37 38 1 0 0
SMALL
USER_CHARGES


@<TRIPOS>ATOM
      1 C1         -8.8006    4.3476   65.5115 C.3     1  ZINC000771225867    0.0400
      2 O2         -8.0985    3.5120   66.4340 O.3     1  ZINC000771225867   -0.3600
      3 C3         -8.0728    2.1895   66.1657 C.2     1  ZINC000771225867    0.5500
      4 O4         -7.4890    1.4279   66.9143 O.2     1  ZINC000771225867   -0.4900
      5 C5         -8.7247    1.6884   65.0137 C.2     1  ZINC000771225867   -0.3400
      6 C6         -8.7772    0.3762   64.6217 C.2     1  ZINC000771225867    0.2700
      7 Cl7        -8.0246   -0.9086   65.5142 Cl      1  ZINC000771225867    0.0400
      8 N8         -9.4463    0.1789   63.5140 N.2     1  ZINC000771225867   -0.5500
      9 C9         -9.9656    1.2243   62.9361 C.2     1  ZINC000771225867    0.3400
     10 N10       -10.6975    1.1931   61.7690 N.pl3   1  ZINC000771225867   -0.6700
     11 C11       -10.0244    0.9647   60.4881 C.3     1  ZINC000771225867    0.1700
     12 C12       -10.5722   -0.2850   59.8486 C.ar    1  ZINC000771225867   -0.0800
     13 C13       -11.8571   -0.2936   59.3386 C.ar    1  ZINC000771225867   -0.1300
     14 C14       -12.3627   -1.4388   58.7511 C.ar    1  ZINC000771225867   -0.0800
     15 C15       -11.5847   -2.5774   58.6724 C.ar    1  ZINC000771225867   -0.2000
     16 C16       -10.2947   -2.5714   59.1835 C.ar    1  ZINC000771225867    0.1300
     17 O17        -9.5270   -3.6902   59.1069 O.3     1  ZINC000771225867   -0.2900
     18 C18        -8.2828   -3.5769   58.4135 C.3     1  ZINC000771225867    0.0400
     19 C19        -8.4883   -3.9021   56.9564 C.2     1  ZINC000771225867    0.5200
     20 N20        -7.4250   -4.1309   56.1604 N.am    1  ZINC000771225867   -0.8500
     21 O21        -9.6107   -3.9579   56.5000 O.2     1  ZINC000771225867   -0.5200
     22 C22        -9.7878   -1.4197   59.7673 C.ar    1  ZINC000771225867   -0.1200
     23 S23        -9.6204    2.6387   63.8310 S.3     1  ZINC000771225867    0.2200
     24 H24        -8.3489    4.2579   64.5235 H       1  ZINC000771225867    0.0600
     25 H25        -9.8447    4.0383   65.4631 H       1  ZINC000771225867    0.0600
     26 H26        -8.7437    5.3840   65.8442 H       1  ZINC000771225867    0.1000
     27 H27       -11.6585    1.3224   61.7957 H       1  ZINC000771225867    0.4200
     28 H28       -10.1979    1.8159   59.8296 H       1  ZINC000771225867    0.0900
     29 H29        -8.9538    0.8476   60.6560 H       1  ZINC000771225867    0.0900
     30 H30       -12.4672    0.5954   59.3995 H       1  ZINC000771225867    0.1300
     31 H31       -13.3669   -1.4431   58.3537 H       1  ZINC000771225867    0.1300
     32 H32       -11.9802   -3.4716   58.2138 H       1  ZINC000771225867    0.1300
     33 H33        -7.9050   -2.5590   58.5087 H       1  ZINC000771225867    0.1000
     34 H34        -7.5627   -4.2735   58.8430 H       1  ZINC000771225867    0.1000
     35 H35        -7.5575   -4.3414   55.2228 H       1  ZINC000771225867    0.4000
     36 H36        -6.5275   -4.0852   56.5252 H       1  ZINC000771225867    0.4100
     37 H37        -8.7841   -1.4124   60.1659 H       1  ZINC000771225867    0.1400
@<TRIPOS>BOND
     1     1     2    1
     2     1    24    1
     3     1    25    1
     4     1    26    1
     5     2     3    1
     6     3     4    2
     7     3     5    1
     8     5    23    1
     9     5     6    2
    10     6     7    1
    11     6     8    1
    12     8     9    2
    13     9    10    1
    14     9    23    1
    15    10    11    1
    16    10    27    1
    17    11    12    1
    18    11    28    1
    19    11    29    1
    20    12    22   ar
    21    12    13   ar
    22    13    14   ar
    23    13    30    1
    24    14    15   ar
    25    14    31    1
    26    15    16   ar
    27    15    32    1
    28    16    17    1
    29    16    22   ar
    30    17    18    1
    31    18    19    1
    32    18    33    1
    33    18    34    1
    34    19    20   am
    35    19    21    2
    36    20    35    1
    37    20    36    1
    38    22    37    1
@<TRIPOS>SUBSTRUCTURE
     1 ZINC000771225867        1 TEMP              0 ****  ****    0 ROOT


##########                                Name:    ZINC000186316242
##########                DOCK_Rotatable_Bonds:                   7
##########                         Heavy_Atoms:                  28
##########                    Molecular_Weight:             392.525
##########                DOCK_Rotatable_Bonds:                   7
##########                       Formal_Charge:         -0.00999981
##########                     HBond_Acceptors:                   6
##########                        HBond_Donors:                   0
##########                         Heavy_Atoms:                  28
##########                          Grid_Score:          -32.623928
##########                     Grid_vdw_energy:          -32.516544
##########                      Grid_es_energy:           -0.107383
##########           Internal_energy_repulsive:           85.298676

@<TRIPOS>MOLECULE
ZINC000186316242
 52 55 1 0 0
SMALL
USER_CHARGES


@<TRIPOS>ATOM
      1 C1        -14.5836    0.0247   56.9189 C.3     1  ZINC000186316242   -0.1500
      2 C2        -13.1361   -0.4373   57.0989 C.3     1  ZINC000186316242    0.1000
      3 N3        -12.7434   -0.2780   58.5012 N.am    1  ZINC000186316242   -0.5900
      4 C4        -12.8639    0.9221   59.1026 C.2     1  ZINC000186316242    0.5900
      5 O5        -13.2987    1.8729   58.4812 O.2     1  ZINC000186316242   -0.5000
      6 C6        -12.4688    1.0823   60.5130 C.2     1  ZINC000186316242    0.0100
      7 C7        -13.1491    0.4932   61.5368 C.2     1  ZINC000186316242   -0.2100
      8 S8        -12.3971    0.9076   63.0158 S.3     1  ZINC000186316242    0.2000
      9 C9        -11.1938    1.8632   62.1584 C.2     1  ZINC000186316242    0.0700
     10 C10       -10.0880    2.6123   62.7940 C.ar    1  ZINC000186316242    0.1900
     11 C11        -9.1951    3.3330   62.0015 C.ar    1  ZINC000186316242   -0.1500
     12 C12        -8.1658    4.0293   62.6112 C.ar    1  ZINC000186316242   -0.0700
     13 C13        -8.0625    3.9826   63.9941 C.ar    1  ZINC000186316242   -0.1600
     14 C14        -8.9831    3.2476   64.7194 C.ar    1  ZINC000186316242    0.1100
     15 N15        -9.9565    2.5979   64.1156 N.ar    1  ZINC000186316242   -0.4500
     16 N16       -11.4222    1.8054   60.8823 N.2     1  ZINC000186316242   -0.3900
     17 C17       -12.2196   -1.4232   59.2499 C.3     1  ZINC000186316242    0.1400
     18 H18       -13.0144   -1.8890   59.8325 H       1  ZINC000186316242    0.1000
     19 C19       -11.0663   -0.9759   60.1770 C.3     1  ZINC000186316242   -0.1300
     20 C20       -10.0580   -2.1470   60.0654 C.3     1  ZINC000186316242    0.0400
     21 N21       -10.1546   -2.5438   58.6374 N.3     1  ZINC000186316242   -0.4900
     22 C22        -9.6548   -3.9103   58.4357 C.3     1  ZINC000186316242    0.0800
     23 C23        -8.3272   -3.8597   57.7242 C.ar    1  ZINC000186316242   -0.0700
     24 C24        -8.2692   -4.0436   56.3554 C.ar    1  ZINC000186316242   -0.1000
     25 C25        -7.0514   -3.9972   55.7029 C.ar    1  ZINC000186316242   -0.1200
     26 C26        -5.8918   -3.7664   56.4190 C.ar    1  ZINC000186316242   -0.1200
     27 C27        -5.9500   -3.5815   57.7877 C.ar    1  ZINC000186316242   -0.1200
     28 C28        -7.1682   -3.6237   58.4398 C.ar    1  ZINC000186316242   -0.1100
     29 C29       -11.5909   -2.4483   58.2878 C.3     1  ZINC000186316242    0.0400
     30 H30       -14.8758   -0.0938   55.8755 H       1  ZINC000186316242    0.0700
     31 H31       -15.2380   -0.5766   57.5500 H       1  ZINC000186316242    0.0500
     32 H32       -14.6682    1.0736   57.2030 H       1  ZINC000186316242    0.0400
     33 H33       -13.0516   -1.4861   56.8148 H       1  ZINC000186316242    0.1200
     34 H34       -12.4817    0.1640   56.4678 H       1  ZINC000186316242    0.0700
     35 H35       -14.0219   -0.1339   61.4310 H       1  ZINC000186316242    0.1900
     36 H36        -9.3050    3.3472   60.9272 H       1  ZINC000186316242    0.1400
     37 H37        -7.4587    4.5960   62.0236 H       1  ZINC000186316242    0.1400
     38 H38        -7.2702    4.5148   64.4995 H       1  ZINC000186316242    0.1400
     39 H39        -8.9048    3.2091   65.7958 H       1  ZINC000186316242    0.1600
     40 H40       -10.6208   -0.0479   59.8183 H       1  ZINC000186316242    0.0900
     41 H41       -11.4169   -0.8653   61.2031 H       1  ZINC000186316242    0.0700
     42 H42        -9.0491   -1.8101   60.3037 H       1  ZINC000186316242    0.0800
     43 H43       -10.3527   -2.9715   60.7146 H       1  ZINC000186316242    0.0400
     44 H44        -9.5306   -4.3982   59.4024 H       1  ZINC000186316242    0.0400
     45 H45       -10.3683   -4.4731   57.8337 H       1  ZINC000186316242    0.0800
     46 H46        -9.1751   -4.2240   55.7959 H       1  ZINC000186316242    0.1200
     47 H47        -7.0060   -4.1416   54.6335 H       1  ZINC000186316242    0.1200
     48 H48        -4.9403   -3.7308   55.9093 H       1  ZINC000186316242    0.1200
     49 H49        -5.0440   -3.4014   58.3474 H       1  ZINC000186316242    0.1200
     50 H50        -7.2137   -3.4792   59.5091 H       1  ZINC000186316242    0.1200
     51 H51       -12.0689   -3.4198   58.4129 H       1  ZINC000186316242    0.0500
     52 H52       -11.7007   -2.1071   57.2585 H       1  ZINC000186316242    0.0800
@<TRIPOS>BOND
     1     1     2    1
     2     1    30    1
     3     1    31    1
     4     1    32    1
     5     2     3    1
     6     2    33    1
     7     2    34    1
     8     3     4   am
     9     3    17    1
    10     4     5    2
    11     4     6    1
    12     6    16    1
    13     6     7    2
    14     7     8    1
    15     7    35    1
    16     8     9    1
    17     9    10    1
    18     9    16    2
    19    10    15   ar
    20    10    11   ar
    21    11    12   ar
    22    11    36    1
    23    12    13   ar
    24    12    37    1
    25    13    14   ar
    26    13    38    1
    27    14    15   ar
    28    14    39    1
    29    17    18    1
    30    17    29    1
    31    17    19    1
    32    19    20    1
    33    19    40    1
    34    19    41    1
    35    20    21    1
    36    20    42    1
    37    20    43    1
    38    21    22    1
    39    21    29    1
    40    22    23    1
    41    22    44    1
    42    22    45    1
    43    23    28   ar
    44    23    24   ar
    45    24    25   ar
    46    24    46    1
    47    25    26   ar
    48    25    47    1
    49    26    27   ar
    50    26    48    1
    51    27    28   ar
    52    27    49    1
    53    28    50    1
    54    29    51    1
    55    29    52    1
@<TRIPOS>SUBSTRUCTURE
     1 ZINC000186316242        1 TEMP              0 ****  ****    0 ROOT


##########                                Name:    ZINC000611836474
##########                DOCK_Rotatable_Bonds:                   7
##########                         Heavy_Atoms:                  22
##########                    Molecular_Weight:             366.258
##########                DOCK_Rotatable_Bonds:                   7
##########                       Formal_Charge:          -0.0300004
##########                     HBond_Acceptors:                   5
##########                        HBond_Donors:                   1
##########                         Heavy_Atoms:                  22
##########                          Grid_Score:          -32.608612
##########                     Grid_vdw_energy:          -34.694908
##########                      Grid_es_energy:            2.086298
##########           Internal_energy_repulsive:           14.494348

@<TRIPOS>MOLECULE
ZINC000611836474
 42 43 1 0 0
SMALL
USER_CHARGES


@<TRIPOS>ATOM
      1 C1        -12.3612    2.6089   65.0245 C.3     1  ZINC000611836474   -0.1500
      2 C2        -11.4010    3.5869   64.3443 C.3     1  ZINC000611836474   -0.1400
      3 C3        -10.7442    2.9043   63.1428 C.3     1  ZINC000611836474    0.1300
      4 N4         -9.8873    1.8118   63.6101 N.pl3   1  ZINC000611836474   -0.3900
      5 N5         -9.0007    1.8653   64.6932 N.2     1  ZINC000611836474   -0.2900
      6 C6         -8.4137    0.7012   64.8035 C.2     1  ZINC000611836474    0.0600
      7 C7         -8.9037   -0.1352   63.7968 C.2     1  ZINC000611836474   -0.2800
      8 C8         -9.8166    0.5714   63.0757 C.2     1  ZINC000611836474    0.3000
      9 N9        -10.5414    0.1038   61.9796 N.am    1  ZINC000611836474   -0.6500
     10 C10        -9.9186   -0.5899   61.0062 C.2     1  ZINC000611836474    0.5200
     11 O11        -8.7281   -0.8088   61.0841 O.2     1  ZINC000611836474   -0.4700
     12 C12       -10.7014   -1.0935   59.8210 C.3     1  ZINC000611836474    0.0700
     13 H13       -10.3090   -0.6441   58.9089 H       1  ZINC000611836474    0.1100
     14 C14       -12.1744   -0.7137   59.9839 C.3     1  ZINC000611836474   -0.1800
     15 O15       -10.5822   -2.5153   59.7409 O.3     1  ZINC000611836474   -0.2700
     16 C16        -9.6511   -3.0091   58.8826 C.ar    1  ZINC000611836474    0.1500
     17 C17        -8.3342   -3.1517   59.2931 C.ar    1  ZINC000611836474   -0.2000
     18 C18        -7.3893   -3.6538   58.4187 C.ar    1  ZINC000611836474   -0.0600
     19 C19        -7.7554   -4.0136   57.1351 C.ar    1  ZINC000611836474   -0.1100
     20 C20        -6.7225   -4.5604   56.1837 C.3     1  ZINC000611836474   -0.1100
     21 C21        -9.0678   -3.8731   56.7227 C.ar    1  ZINC000611836474   -0.0500
     22 C22       -10.0179   -3.3769   57.5951 C.ar    1  ZINC000611836474   -0.1200
     23 Br23      -11.8125   -3.1848   57.0309 Br      1  ZINC000611836474   -0.0300
     24 H24       -12.8290    3.0953   65.8805 H       1  ZINC000611836474    0.0600
     25 H25       -13.1303    2.3024   64.3156 H       1  ZINC000611836474    0.0600
     26 H26       -11.8080    1.7324   65.3622 H       1  ZINC000611836474    0.0600
     27 H27       -11.9541    4.4634   64.0067 H       1  ZINC000611836474    0.0800
     28 H28       -10.6320    3.8934   65.0532 H       1  ZINC000611836474    0.0600
     29 H29       -11.5162    2.5047   62.4851 H       1  ZINC000611836474    0.0800
     30 H30       -10.1419    3.6305   62.5968 H       1  ZINC000611836474    0.1000
     31 H31        -7.6761    0.4327   65.5453 H       1  ZINC000611836474    0.1900
     32 H32        -8.6125   -1.1607   63.6240 H       1  ZINC000611836474    0.1700
     33 H33       -11.4937    0.2777   61.9180 H       1  ZINC000611836474    0.4100
     34 H34       -12.2653    0.3708   60.0451 H       1  ZINC000611836474    0.0800
     35 H35       -12.7405   -1.0780   59.1267 H       1  ZINC000611836474    0.0800
     36 H36       -12.5668   -1.1632   60.8961 H       1  ZINC000611836474    0.0800
     37 H37        -8.0472   -2.8700   60.2956 H       1  ZINC000611836474    0.1400
     38 H38        -6.3637   -3.7649   58.7383 H       1  ZINC000611836474    0.1300
     39 H39        -6.6781   -5.6453   56.2799 H       1  ZINC000611836474    0.0700
     40 H40        -6.9944   -4.2971   55.1617 H       1  ZINC000611836474    0.0700
     41 H41        -5.7478   -4.1344   56.4217 H       1  ZINC000611836474    0.0700
     42 H42        -9.3513   -4.1549   55.7194 H       1  ZINC000611836474    0.1400
@<TRIPOS>BOND
     1     1     2    1
     2     1    24    1
     3     1    25    1
     4     1    26    1
     5     2     3    1
     6     2    27    1
     7     2    28    1
     8     3     4    1
     9     3    29    1
    10     3    30    1
    11     4     8    1
    12     4     5    1
    13     5     6    2
    14     6     7    1
    15     6    31    1
    16     7     8    2
    17     7    32    1
    18     8     9    1
    19     9    10   am
    20     9    33    1
    21    10    11    2
    22    10    12    1
    23    12    13    1
    24    12    14    1
    25    12    15    1
    26    14    34    1
    27    14    35    1
    28    14    36    1
    29    15    16    1
    30    16    22   ar
    31    16    17   ar
    32    17    18   ar
    33    17    37    1
    34    18    19   ar
    35    18    38    1
    36    19    20    1
    37    19    21   ar
    38    20    39    1
    39    20    40    1
    40    20    41    1
    41    21    22   ar
    42    21    42    1
    43    22    23    1
@<TRIPOS>SUBSTRUCTURE
     1 ZINC000611836474        1 TEMP              0 ****  ****    0 ROOT


##########                                Name:    ZINC001105793963
##########                DOCK_Rotatable_Bonds:                   9
##########                         Heavy_Atoms:                  24
##########                    Molecular_Weight:             337.422
##########                DOCK_Rotatable_Bonds:                   9
##########                       Formal_Charge:          -0.0100003
##########                     HBond_Acceptors:                   8
##########                        HBond_Donors:                   2
##########                         Heavy_Atoms:                  24
##########                          Grid_Score:          -32.519405
##########                     Grid_vdw_energy:          -32.455307
##########                      Grid_es_energy:           -0.064100
##########           Internal_energy_repulsive:           10.954527

@<TRIPOS>MOLECULE
ZINC001105793963
 51 52 1 0 0
SMALL
USER_CHARGES


@<TRIPOS>ATOM
      1 C1         -6.3763   -4.6348   55.2136 C.3     1  ZINC001105793963   -0.1500
      2 C2         -5.6587   -3.9880   56.4001 C.3     1  ZINC001105793963   -0.0300
      3 C3         -6.6391   -3.7747   57.5246 C.2     1  ZINC001105793963    0.1800
      4 N4         -7.9377   -3.6322   57.4117 N.2     1  ZINC001105793963   -0.4800
      5 C5         -8.3943   -3.4690   58.6663 C.2     1  ZINC001105793963    0.1700
      6 C6         -9.8310   -3.2654   59.0731 C.3     1  ZINC001105793963    0.1500
      7 N7        -10.1779   -1.8432   58.9500 N.3     1  ZINC001105793963   -0.6900
      8 C8        -11.6113   -1.6285   59.1892 C.3     1  ZINC001105793963    0.0700
      9 C9        -11.8213   -0.2552   59.8302 C.3     1  ZINC001105793963   -0.1000
     10 H10       -11.4700    0.5315   59.1625 H       1  ZINC001105793963    0.1000
     11 C11       -11.0857   -0.1772   61.1854 C.3     1  ZINC001105793963    0.1100
     12 N12       -11.9858    0.6162   62.0542 N.am    1  ZINC001105793963   -0.6200
     13 C13       -11.6454    1.5569   62.9574 C.2     1  ZINC001105793963    0.5300
     14 O14       -12.5062    2.1220   63.5981 O.2     1  ZINC001105793963   -0.5300
     15 C15       -10.1951    1.9065   63.1711 C.3     1  ZINC001105793963    0.1300
     16 H16        -9.6207    1.6302   62.2869 H       1  ZINC001105793963    0.1100
     17 C17       -10.0638    3.4112   63.4150 C.3     1  ZINC001105793963   -0.1600
     18 N18        -9.6831    1.1768   64.3337 N.am    1  ZINC001105793963   -0.7200
     19 C19        -8.8977    0.0957   64.1585 C.2     1  ZINC001105793963    0.5200
     20 C20        -8.3695   -0.6538   65.3544 C.3     1  ZINC001105793963   -0.1700
     21 O21        -8.6159   -0.2740   63.0383 O.2     1  ZINC001105793963   -0.5500
     22 C22       -13.3449    0.1411   61.7051 C.3     1  ZINC001105793963    0.1000
     23 C23       -13.3113   -0.0441   60.1703 C.3     1  ZINC001105793963   -0.1000
     24 H24       -13.8933   -0.9193   59.8814 H       1  ZINC001105793963    0.0900
     25 C25       -13.8500    1.2060   59.4718 C.3     1  ZINC001105793963   -0.1500
     26 N26        -7.3692   -3.5197   59.4632 N.2     1  ZINC001105793963   -0.3700
     27 O27        -6.3519   -3.7005   58.8276 O.3     1  ZINC001105793963    0.0800
     28 H28        -6.7922   -5.5947   55.5199 H       1  ZINC001105793963    0.0600
     29 H29        -7.1805   -3.9815   54.8755 H       1  ZINC001105793963    0.0600
     30 H30        -5.6672   -4.7889   54.4003 H       1  ZINC001105793963    0.0800
     31 H31        -4.8543   -4.6413   56.7383 H       1  ZINC001105793963    0.1100
     32 H32        -5.2427   -3.0281   56.0938 H       1  ZINC001105793963    0.1000
     33 H33       -10.4792   -3.8551   58.4250 H       1  ZINC001105793963    0.1000
     34 H34        -9.9644   -3.5837   60.1072 H       1  ZINC001105793963    0.0700
     35 H35        -9.6190   -1.2794   59.5727 H       1  ZINC001105793963    0.3500
     36 H36       -12.1485   -1.6733   58.2419 H       1  ZINC001105793963    0.0800
     37 H37       -11.9882   -2.4028   59.8575 H       1  ZINC001105793963    0.0400
     38 H38       -10.9422   -1.1759   61.5979 H       1  ZINC001105793963    0.0700
     39 H39       -10.1270    0.3282   61.0689 H       1  ZINC001105793963    0.0900
     40 H40        -9.0148    3.6641   63.5696 H       1  ZINC001105793963    0.0800
     41 H41       -10.4448    3.9541   62.5500 H       1  ZINC001105793963    0.0800
     42 H42       -10.6382    3.6875   64.2992 H       1  ZINC001105793963    0.0600
     43 H43        -9.9094    1.4718   65.2296 H       1  ZINC001105793963    0.4100
     44 H44        -8.7257   -0.1777   66.2680 H       1  ZINC001105793963    0.0800
     45 H45        -8.7210   -1.6850   65.3213 H       1  ZINC001105793963    0.1000
     46 H46        -7.2797   -0.6407   65.3391 H       1  ZINC001105793963    0.1000
     47 H47       -13.5543   -0.8079   62.1989 H       1  ZINC001105793963    0.0800
     48 H48       -14.0906    0.8867   61.9808 H       1  ZINC001105793963    0.0900
     49 H49       -13.2509    2.0698   59.7600 H       1  ZINC001105793963    0.0600
     50 H50       -13.7959    1.0704   58.3916 H       1  ZINC001105793963    0.0600
     51 H51       -14.8868    1.3684   59.7662 H       1  ZINC001105793963    0.0600
@<TRIPOS>BOND
     1     1     2    1
     2     1    28    1
     3     1    29    1
     4     1    30    1
     5     2     3    1
     6     2    31    1
     7     2    32    1
     8     3    27    1
     9     3     4    2
    10     4     5    1
    11     5     6    1
    12     5    26    2
    13     6     7    1
    14     6    33    1
    15     6    34    1
    16     7     8    1
    17     7    35    1
    18     8     9    1
    19     8    36    1
    20     8    37    1
    21     9    10    1
    22     9    23    1
    23     9    11    1
    24    11    12    1
    25    11    38    1
    26    11    39    1
    27    12    13   am
    28    12    22    1
    29    13    14    2
    30    13    15    1
    31    15    16    1
    32    15    17    1
    33    15    18    1
    34    17    40    1
    35    17    41    1
    36    17    42    1
    37    18    19   am
    38    18    43    1
    39    19    20    1
    40    19    21    2
    41    20    44    1
    42    20    45    1
    43    20    46    1
    44    22    23    1
    45    22    47    1
    46    22    48    1
    47    23    24    1
    48    23    25    1
    49    25    49    1
    50    25    50    1
    51    25    51    1
    52    26    27    1
@<TRIPOS>SUBSTRUCTURE
     1 ZINC001105793963        1 TEMP              0 ****  ****    0 ROOT


##########                                Name:    ZINC000465642058
##########                DOCK_Rotatable_Bonds:                  10
##########                         Heavy_Atoms:                  31
##########                    Molecular_Weight:             420.511
##########                DOCK_Rotatable_Bonds:                  10
##########                       Formal_Charge:          1.2666e-07
##########                     HBond_Acceptors:                   7
##########                        HBond_Donors:                   2
##########                         Heavy_Atoms:                  31
##########                          Grid_Score:          -32.513802
##########                     Grid_vdw_energy:          -32.109573
##########                      Grid_es_energy:           -0.404230
##########           Internal_energy_repulsive:           18.539454

@<TRIPOS>MOLECULE
ZINC000465642058
 59 62 1 0 0
SMALL
USER_CHARGES


@<TRIPOS>ATOM
      1 C1         -9.5870   -3.1942   58.5107 C.3     1  ZINC000465642058   -0.1500
      2 C2         -9.3173   -2.4463   59.8180 C.3     1  ZINC000465642058    0.0500
      3 O3         -9.4090   -1.0388   59.5890 O.3     1  ZINC000465642058   -0.3000
      4 C4         -9.4207   -0.2345   60.6855 C.ar    1  ZINC000465642058    0.1200
      5 C5         -8.8631   -0.6730   61.8782 C.ar    1  ZINC000465642058   -0.1600
      6 C6         -8.8765    0.1462   62.9854 C.ar    1  ZINC000465642058   -0.1300
      7 C7         -9.4372    1.4151   62.9253 C.ar    1  ZINC000465642058    0.0700
      8 C8         -9.9994    1.8479   61.7269 C.ar    1  ZINC000465642058   -0.0700
      9 C9         -9.9849    1.0309   60.6160 C.ar    1  ZINC000465642058   -0.1100
     10 C10       -10.5957    1.5100   59.3244 C.3     1  ZINC000465642058    0.1900
     11 N11        -9.5961    2.2602   58.5601 N.am    1  ZINC000465642058   -0.7300
     12 C12        -9.9856    3.0818   57.5653 C.2     1  ZINC000465642058    0.7100
     13 O13       -11.1667    3.1993   57.3012 O.2     1  ZINC000465642058   -0.5900
     14 N14        -9.0661    3.7732   56.8633 N.am    1  ZINC000465642058   -0.6200
     15 C15        -9.4895    4.6649   55.7808 C.3     1  ZINC000465642058    0.1900
     16 C16        -9.4611    3.9161   54.4732 C.2     1  ZINC000465642058    0.0500
     17 N17       -10.4593    3.2545   53.9462 N.2     1  ZINC000465642058   -0.2700
     18 N18       -10.0275    2.7045   52.7323 N.pl3   1  ZINC000465642058   -0.4700
     19 C19        -8.7382    3.0591   52.5510 C.2     1  ZINC000465642058    0.0600
     20 C20        -8.3649    3.8135   53.6105 C.2     1  ZINC000465642058   -0.2600
     21 C21        -7.6431    3.6331   57.1827 C.3     1  ZINC000465642058    0.1700
     22 C22        -7.2664    4.6316   58.2466 C.ar    1  ZINC000465642058   -0.1100
     23 C23        -5.9842    5.1464   58.2884 C.ar    1  ZINC000465642058   -0.0900
     24 C24        -5.6386    6.0623   59.2644 C.ar    1  ZINC000465642058   -0.1200
     25 C25        -6.5753    6.4637   60.1984 C.ar    1  ZINC000465642058   -0.1200
     26 C26        -7.8578    5.9495   60.1561 C.ar    1  ZINC000465642058   -0.1300
     27 C27        -8.2046    5.0369   59.1775 C.ar    1  ZINC000465642058   -0.1100
     28 O28        -9.3241    2.0610   64.1196 O.3     1  ZINC000465642058   -0.3000
     29 C29        -9.0813    1.0966   65.1578 C.3     1  ZINC000465642058    0.0800
     30 H30       -10.0200    0.7490   65.5892 H       1  ZINC000465642058    0.0900
     31 C31        -8.1737    1.6832   66.2410 C.3     1  ZINC000465642058   -0.1500
     32 C32        -8.3684   -0.0488   64.4010 C.3     1  ZINC000465642058   -0.1100
     33 H33        -8.8498   -2.8987   57.7642 H       1  ZINC000465642058    0.0700
     34 H34        -9.5172   -4.2678   58.6853 H       1  ZINC000465642058    0.0800
     35 H35       -10.5864   -2.9489   58.1513 H       1  ZINC000465642058    0.0700
     36 H36       -10.0546   -2.7417   60.5644 H       1  ZINC000465642058    0.0600
     37 H37        -8.3179   -2.6917   60.1774 H       1  ZINC000465642058    0.0600
     38 H38        -8.4194   -1.6559   61.9384 H       1  ZINC000465642058    0.1300
     39 H39       -10.4452    2.8298   61.6661 H       1  ZINC000465642058    0.1400
     40 H40       -10.9308    0.6525   58.7409 H       1  ZINC000465642058    0.0700
     41 H41       -11.4463    2.1559   59.5424 H       1  ZINC000465642058    0.0800
     42 H42        -8.6538    2.1656   58.7701 H       1  ZINC000465642058    0.4000
     43 H43       -10.5022    5.0175   55.9756 H       1  ZINC000465642058    0.1000
     44 H44        -8.8121    5.5171   55.7261 H       1  ZINC000465642058    0.0900
     45 H45       -10.5612    2.1642   52.1289 H       1  ZINC000465642058    0.4400
     46 H46        -8.1168    2.7922   51.7089 H       1  ZINC000465642058    0.1800
     47 H47        -7.3908    4.2532   53.7657 H       1  ZINC000465642058    0.1500
     48 H48        -7.4501    2.6239   57.5467 H       1  ZINC000465642058    0.0900
     49 H49        -7.0500    3.8157   56.2866 H       1  ZINC000465642058    0.0900
     50 H50        -5.2523    4.8329   57.5587 H       1  ZINC000465642058    0.1300
     51 H51        -4.6366    6.4640   59.2974 H       1  ZINC000465642058    0.1200
     52 H52        -6.3051    7.1788   60.9613 H       1  ZINC000465642058    0.1200
     53 H53        -8.5896    6.2628   60.8860 H       1  ZINC000465642058    0.1200
     54 H54        -9.2065    4.6352   59.1444 H       1  ZINC000465642058    0.1200
     55 H55        -8.6622    2.5442   66.6972 H       1  ZINC000465642058    0.0700
     56 H56        -7.9825    0.9277   67.0031 H       1  ZINC000465642058    0.0800
     57 H57        -7.2298    1.9955   65.7941 H       1  ZINC000465642058    0.0700
     58 H58        -8.6692   -1.0207   64.7923 H       1  ZINC000465642058    0.0900
     59 H59        -7.2857    0.0692   64.4459 H       1  ZINC000465642058    0.1000
@<TRIPOS>BOND
     1     1     2    1
     2     1    33    1
     3     1    34    1
     4     1    35    1
     5     2     3    1
     6     2    36    1
     7     2    37    1
     8     3     4    1
     9     4     9   ar
    10     4     5   ar
    11     5     6   ar
    12     5    38    1
    13     6    32    1
    14     6     7   ar
    15     7     8   ar
    16     7    28    1
    17     8     9   ar
    18     8    39    1
    19     9    10    1
    20    10    11    1
    21    10    40    1
    22    10    41    1
    23    11    12   am
    24    11    42    1
    25    12    13    2
    26    12    14   am
    27    14    15    1
    28    14    21    1
    29    15    16    1
    30    15    43    1
    31    15    44    1
    32    16    20    1
    33    16    17    2
    34    17    18    1
    35    18    19    1
    36    18    45    1
    37    19    20    2
    38    19    46    1
    39    20    47    1
    40    21    22    1
    41    21    48    1
    42    21    49    1
    43    22    27   ar
    44    22    23   ar
    45    23    24   ar
    46    23    50    1
    47    24    25   ar
    48    24    51    1
    49    25    26   ar
    50    25    52    1
    51    26    27   ar
    52    26    53    1
    53    27    54    1
    54    28    29    1
    55    29    30    1
    56    29    31    1
    57    29    32    1
    58    31    55    1
    59    31    56    1
    60    31    57    1
    61    32    58    1
    62    32    59    1
@<TRIPOS>SUBSTRUCTURE
     1 ZINC000465642058        1 TEMP              0 ****  ****    0 ROOT


##########                                Name:    ZINC000624498741
##########                DOCK_Rotatable_Bonds:                   7
##########                         Heavy_Atoms:                  27
##########                    Molecular_Weight:             379.339
##########                DOCK_Rotatable_Bonds:                   7
##########                       Formal_Charge:           0.0300003
##########                     HBond_Acceptors:                   9
##########                        HBond_Donors:                   0
##########                         Heavy_Atoms:                  27
##########                          Grid_Score:          -32.512413
##########                     Grid_vdw_energy:          -30.950016
##########                      Grid_es_energy:           -1.562399
##########           Internal_energy_repulsive:           10.956156

@<TRIPOS>MOLECULE
ZINC000624498741
 43 45 1 0 0
SMALL
USER_CHARGES


@<TRIPOS>ATOM
      1 C1        -11.5616    5.3326   63.4130 C.3     1  ZINC000624498741   -0.1100
      2 C2        -10.9018    3.9867   63.2569 C.ar    1  ZINC000624498741   -0.0900
      3 C3        -11.4175    3.0664   62.3714 C.ar    1  ZINC000624498741   -0.0400
      4 C4        -10.8049    1.8192   62.2272 C.ar    1  ZINC000624498741   -0.0500
      5 C5        -11.3543    0.8298   61.2787 C.2     1  ZINC000624498741    0.2300
      6 N6        -10.8178   -0.3334   60.9518 N.2     1  ZINC000624498741   -0.4700
      7 C7        -11.6630   -0.8829   60.0660 C.2     1  ZINC000624498741    0.1800
      8 C8        -11.4984   -2.2198   59.3904 C.3     1  ZINC000624498741   -0.0300
      9 C9        -10.0092   -2.5457   59.2607 C.3     1  ZINC000624498741   -0.1300
     10 C10        -9.8188   -3.6597   58.2294 C.3     1  ZINC000624498741    0.0900
     11 N11        -8.4183   -3.6942   57.8006 N.am    1  ZINC000624498741   -0.5000
     12 C12        -7.4308   -3.5581   58.7222 C.2     1  ZINC000624498741    0.1300
     13 C13        -6.1297   -3.5864   58.3502 C.2     1  ZINC000624498741   -0.2300
     14 C14        -5.7913   -3.7582   57.0006 C.2     1  ZINC000624498741   -0.0200
     15 C15        -6.7848   -3.8952   56.0762 C.2     1  ZINC000624498741   -0.2400
     16 C16        -8.1252   -3.8663   56.4977 C.2     1  ZINC000624498741    0.5100
     17 O17        -9.0242   -3.9878   55.6810 O.2     1  ZINC000624498741   -0.5500
     18 N18       -12.6502   -0.0535   59.8966 N.2     1  ZINC000624498741   -0.3700
     19 O19       -12.4986    0.9336   60.5847 O.3     1  ZINC000624498741    0.0900
     20 C20        -9.6711    1.5107   62.9822 C.ar    1  ZINC000624498741   -0.0200
     21 C21        -9.1614    2.4369   63.8658 C.ar    1  ZINC000624498741   -0.1900
     22 C22        -9.7705    3.6780   64.0025 C.ar    1  ZINC000624498741    0.1300
     23 O23        -9.2651    4.5878   64.8744 O.3     1  ZINC000624498741   -0.3000
     24 C24        -9.4965    4.3521   66.2647 C.3     1  ZINC000624498741    0.6000
     25 F25        -8.6833    3.3007   66.7011 F       1  ZINC000624498741   -0.1600
     26 F26        -9.1927    5.5088   66.9907 F       1  ZINC000624498741   -0.1300
     27 F27       -10.8399    4.0162   66.4635 F       1  ZINC000624498741   -0.1600
     28 H28       -11.1251    6.0357   62.7036 H       1  ZINC000624498741    0.0800
     29 H29       -12.6302    5.2380   63.2199 H       1  ZINC000624498741    0.0800
     30 H30       -11.4068    5.6976   64.4283 H       1  ZINC000624498741    0.0800
     31 H31       -12.2946    3.3085   61.7896 H       1  ZINC000624498741    0.1500
     32 H32       -11.9884   -2.9904   59.9855 H       1  ZINC000624498741    0.1000
     33 H33       -11.9502   -2.1841   58.3991 H       1  ZINC000624498741    0.1000
     34 H34        -9.4691   -1.6556   58.9379 H       1  ZINC000624498741    0.0800
     35 H35        -9.6238   -2.8745   60.2259 H       1  ZINC000624498741    0.0800
     36 H36       -10.0858   -4.6176   58.6757 H       1  ZINC000624498741    0.1100
     37 H37       -10.4581   -3.4698   57.3672 H       1  ZINC000624498741    0.1000
     38 H38        -7.6860   -3.4256   59.7632 H       1  ZINC000624498741    0.1600
     39 H39        -5.3529   -3.4762   59.0924 H       1  ZINC000624498741    0.1500
     40 H40        -4.7553   -3.7814   56.6962 H       1  ZINC000624498741    0.1400
     41 H41        -6.5439   -4.0285   55.0319 H       1  ZINC000624498741    0.1500
     42 H42        -9.1948    0.5475   62.8739 H       1  ZINC000624498741    0.1500
     43 H43        -8.2848    2.1990   64.4504 H       1  ZINC000624498741    0.1500
@<TRIPOS>BOND
     1     1     2    1
     2     1    28    1
     3     1    29    1
     4     1    30    1
     5     2    22   ar
     6     2     3   ar
     7     3     4   ar
     8     3    31    1
     9     4     5    1
    10     4    20   ar
    11     5    19    1
    12     5     6    2
    13     6     7    1
    14     7     8    1
    15     7    18    2
    16     8     9    1
    17     8    32    1
    18     8    33    1
    19     9    10    1
    20     9    34    1
    21     9    35    1
    22    10    11    1
    23    10    36    1
    24    10    37    1
    25    11    16   am
    26    11    12    1
    27    12    13    2
    28    12    38    1
    29    13    14    1
    30    13    39    1
    31    14    15    2
    32    14    40    1
    33    15    16    1
    34    15    41    1
    35    16    17    2
    36    18    19    1
    37    20    21   ar
    38    20    42    1
    39    21    22   ar
    40    21    43    1
    41    22    23    1
    42    23    24    1
    43    24    25    1
    44    24    26    1
    45    24    27    1
@<TRIPOS>SUBSTRUCTURE
     1 ZINC000624498741        1 TEMP              0 ****  ****    0 ROOT


##########                                Name:    ZINC001078748831
##########                DOCK_Rotatable_Bonds:                   6
##########                         Heavy_Atoms:                  23
##########                    Molecular_Weight:             333.417
##########                DOCK_Rotatable_Bonds:                   6
##########                       Formal_Charge:           0.0299999
##########                     HBond_Acceptors:                   9
##########                        HBond_Donors:                   2
##########                         Heavy_Atoms:                  23
##########                          Grid_Score:          -32.415268
##########                     Grid_vdw_energy:          -30.283991
##########                      Grid_es_energy:           -2.131277
##########           Internal_energy_repulsive:            7.602259

@<TRIPOS>MOLECULE
ZINC001078748831
 42 45 1 0 0
SMALL
USER_CHARGES


@<TRIPOS>ATOM
      1 C1        -13.5778    4.6181   62.7274 C.3     1  ZINC001078748831    0.1000
      2 N2        -13.7015    3.4731   61.8219 N.pl3   1  ZINC001078748831   -0.1400
      3 N3        -14.1505    3.5422   60.6198 N.2     1  ZINC001078748831   -0.2900
      4 C4        -14.1294    2.3450   60.0852 C.2     1  ZINC001078748831    0.0400
      5 C5        -13.6144    1.4902   61.0802 C.2     1  ZINC001078748831   -0.0500
      6 C6        -13.3889    0.0330   60.9784 C.2     1  ZINC001078748831    0.6200
      7 O7        -13.2081   -0.6257   61.9840 O.2     1  ZINC001078748831   -0.5200
      8 N8        -13.3838   -0.5653   59.7708 N.am    1  ZINC001078748831   -0.7000
      9 C9        -13.1586   -2.0094   59.6698 C.3     1  ZINC001078748831    0.1500
     10 H10       -13.8423   -2.5895   60.2896 H       1  ZINC001078748831    0.1100
     11 C11       -11.6827   -2.4172   59.8298 C.3     1  ZINC001078748831   -0.1800
     12 C12       -11.5481   -2.2534   58.3049 C.3     1  ZINC001078748831    0.0800
     13 H13       -11.2629   -1.2477   57.9964 H       1  ZINC001078748831    0.1000
     14 N14       -10.7341   -3.2981   57.6694 N.3     1  ZINC001078748831   -0.6700
     15 C15        -9.5247   -3.5748   58.4561 C.3     1  ZINC001078748831    0.1400
     16 C16        -8.3565   -3.7797   57.5263 C.2     1  ZINC001078748831    0.0600
     17 N17        -7.1214   -3.9024   57.9266 N.2     1  ZINC001078748831   -0.5700
     18 S18        -6.2145   -4.0987   56.6725 S.3     1  ZINC001078748831    0.6800
     19 N19        -7.3174   -4.0401   55.5708 N.2     1  ZINC001078748831   -0.5700
     20 C20        -8.4715   -3.8651   56.1526 C.2     1  ZINC001078748831    0.0500
     21 C21       -13.0557   -2.5153   58.2305 C.3     1  ZINC001078748831   -0.1000
     22 C22       -13.6013   -3.8871   57.8322 C.3     1  ZINC001078748831   -0.1000
     23 C23       -14.8225   -3.1405   57.2655 C.3     1  ZINC001078748831   -0.1400
     24 C24       -13.9092   -1.9104   57.1153 C.3     1  ZINC001078748831   -0.1200
     25 N25       -13.3700    2.2679   62.1239 N.2     1  ZINC001078748831   -0.2500
     26 H26       -12.5966    5.0760   62.6022 H       1  ZINC001078748831    0.1000
     27 H27       -14.3522    5.3496   62.4962 H       1  ZINC001078748831    0.1100
     28 H28       -13.6926    4.2808   63.7575 H       1  ZINC001078748831    0.1100
     29 H29       -14.4425    2.0706   59.0887 H       1  ZINC001078748831    0.2100
     30 H30       -13.5293   -0.0399   58.9686 H       1  ZINC001078748831    0.4100
     31 H31       -11.0914   -1.7001   60.3992 H       1  ZINC001078748831    0.0700
     32 H32       -11.5485   -3.4435   60.1716 H       1  ZINC001078748831    0.1000
     33 H33       -11.2726   -4.1393   57.5264 H       1  ZINC001078748831    0.3500
     34 H34        -9.3201   -2.7321   59.1164 H       1  ZINC001078748831    0.1000
     35 H35        -9.6769   -4.4747   59.0521 H       1  ZINC001078748831    0.0600
     36 H36        -9.4085   -3.7894   55.6209 H       1  ZINC001078748831    0.2000
     37 H37       -13.0049   -4.3911   57.0717 H       1  ZINC001078748831    0.1000
     38 H38       -13.8360   -4.5281   58.6820 H       1  ZINC001078748831    0.0700
     39 H39       -15.1753   -3.5403   56.3147 H       1  ZINC001078748831    0.0700
     40 H40       -15.6244   -3.0024   57.9907 H       1  ZINC001078748831    0.0800
     41 H41       -14.3900   -0.9722   57.3925 H       1  ZINC001078748831    0.0700
     42 H42       -13.3994   -1.8587   56.1533 H       1  ZINC001078748831    0.0900
@<TRIPOS>BOND
     1     1     2    1
     2     1    26    1
     3     1    27    1
     4     1    28    1
     5     2    25    1
     6     2     3    1
     7     3     4    2
     8     4     5    1
     9     4    29    1
    10     5     6    1
    11     5    25    2
    12     6     7    2
    13     6     8   am
    14     8     9    1
    15     8    30    1
    16     9    10    1
    17     9    21    1
    18     9    11    1
    19    11    12    1
    20    11    31    1
    21    11    32    1
    22    12    13    1
    23    12    14    1
    24    12    21    1
    25    14    15    1
    26    14    33    1
    27    15    16    1
    28    15    34    1
    29    15    35    1
    30    16    20    1
    31    16    17    2
    32    17    18    1
    33    18    19    1
    34    19    20    2
    35    20    36    1
    36    21    24    1
    37    21    22    1
    38    22    23    1
    39    22    37    1
    40    22    38    1
    41    23    24    1
    42    23    39    1
    43    23    40    1
    44    24    41    1
    45    24    42    1
@<TRIPOS>SUBSTRUCTURE
     1 ZINC001078748831        1 TEMP              0 ****  ****    0 ROOT


##########                                Name:    ZINC000550217006
##########                DOCK_Rotatable_Bonds:                   7
##########                         Heavy_Atoms:                  27
##########                    Molecular_Weight:             367.404
##########                DOCK_Rotatable_Bonds:                   7
##########                       Formal_Charge:          0.00999951
##########                     HBond_Acceptors:                   7
##########                        HBond_Donors:                   3
##########                         Heavy_Atoms:                  27
##########                          Grid_Score:          -32.399826
##########                     Grid_vdw_energy:          -31.792540
##########                      Grid_es_energy:           -0.607286
##########           Internal_energy_repulsive:           20.151682

@<TRIPOS>MOLECULE
ZINC000550217006
 48 50 1 0 0
SMALL
USER_CHARGES


@<TRIPOS>ATOM
      1 C1        -14.7419   -3.1377   59.5751 C.3     1  ZINC000550217006   -0.1500
      2 C2        -13.8077   -1.9385   59.7491 C.3     1  ZINC000550217006    0.0500
      3 O3        -12.4524   -2.3641   59.5944 O.3     1  ZINC000550217006   -0.3100
      4 C4        -12.0360   -2.6513   58.3330 C.ar    1  ZINC000550217006    0.1400
      5 C5        -12.8319   -2.3198   57.2464 C.ar    1  ZINC000550217006   -0.2100
      6 C6        -12.4061   -2.6123   55.9649 C.ar    1  ZINC000550217006   -0.0800
      7 C7        -11.1883   -3.2353   55.7653 C.ar    1  ZINC000550217006   -0.1600
      8 C8        -10.3931   -3.5672   56.8469 C.ar    1  ZINC000550217006   -0.0700
      9 C9        -10.8115   -3.2714   58.1296 C.ar    1  ZINC000550217006   -0.1200
     10 C10        -9.9443   -3.6328   59.3079 C.3     1  ZINC000550217006   -0.0800
     11 C11        -8.8087   -2.6156   59.4365 C.3     1  ZINC000550217006    0.1300
     12 N12        -9.0428   -1.7678   60.6080 N.am    1  ZINC000550217006   -0.7200
     13 C13        -9.5250   -0.5191   60.4506 C.2     1  ZINC000550217006    0.5600
     14 O14        -9.7643   -0.0960   59.3368 O.2     1  ZINC000550217006   -0.5300
     15 C15        -9.7633    0.3372   61.6348 C.ar    1  ZINC000550217006   -0.0800
     16 C16       -10.7097    1.3631   61.5779 C.ar    1  ZINC000550217006   -0.1000
     17 C17       -10.9268    2.1559   62.6781 C.ar    1  ZINC000550217006   -0.0500
     18 C18       -10.2071    1.9479   63.8664 C.ar    1  ZINC000550217006   -0.1300
     19 C19        -9.2639    0.9227   63.9282 C.ar    1  ZINC000550217006    0.1800
     20 C20        -9.0503    0.1188   62.8070 C.ar    1  ZINC000550217006   -0.0900
     21 N21        -8.5185    0.6395   65.0599 N.am    1  ZINC000550217006   -0.6600
     22 C22        -7.9692    1.5383   65.8711 C.2     1  ZINC000550217006    0.5100
     23 O23        -7.2994    1.1550   66.8066 O.2     1  ZINC000550217006   -0.5100
     24 C24        -8.1538    3.0165   65.6626 C.3     1  ZINC000550217006    0.0900
     25 N25        -9.5716    3.3421   65.8175 N.am    1  ZINC000550217006   -0.7100
     26 C26       -10.4942    2.8422   64.9973 C.2     1  ZINC000550217006    0.5600
     27 O27       -11.6539    3.1466   65.1976 O.2     1  ZINC000550217006   -0.5200
     28 H28       -14.5096   -3.8914   60.3275 H       1  ZINC000550217006    0.0700
     29 H29       -15.7756   -2.8130   59.6929 H       1  ZINC000550217006    0.0800
     30 H30       -14.6058   -3.5630   58.5807 H       1  ZINC000550217006    0.0700
     31 H31       -14.0399   -1.1849   58.9966 H       1  ZINC000550217006    0.0600
     32 H32       -13.9438   -1.5132   60.7434 H       1  ZINC000550217006    0.0600
     33 H33       -13.7837   -1.8338   57.4019 H       1  ZINC000550217006    0.1300
     34 H34       -13.0254   -2.3544   55.1186 H       1  ZINC000550217006    0.1300
     35 H35       -10.8573   -3.4634   54.7628 H       1  ZINC000550217006    0.1300
     36 H36        -9.4423   -4.0541   56.6884 H       1  ZINC000550217006    0.1300
     37 H37       -10.5451   -3.6236   60.2174 H       1  ZINC000550217006    0.0800
     38 H38        -9.5255   -4.6281   59.1592 H       1  ZINC000550217006    0.0800
     39 H39        -7.8611   -3.1416   59.5522 H       1  ZINC000550217006    0.0700
     40 H40        -8.7730   -1.9957   58.5406 H       1  ZINC000550217006    0.0700
     41 H41        -8.8508   -2.1050   61.4970 H       1  ZINC000550217006    0.4000
     42 H42       -11.2697    1.5327   60.6700 H       1  ZINC000550217006    0.1400
     43 H43       -11.6588    2.9484   62.6290 H       1  ZINC000550217006    0.1500
     44 H44        -8.3187   -0.6746   62.8487 H       1  ZINC000550217006    0.1500
     45 H45        -8.3858   -0.2958   65.2803 H       1  ZINC000550217006    0.4200
     46 H46        -7.5701    3.5652   66.4017 H       1  ZINC000550217006    0.1300
     47 H47        -7.8243    3.2878   64.6596 H       1  ZINC000550217006    0.1000
     48 H48        -9.8461    3.9352   66.5342 H       1  ZINC000550217006    0.4200
@<TRIPOS>BOND
     1     1     2    1
     2     1    28    1
     3     1    29    1
     4     1    30    1
     5     2     3    1
     6     2    31    1
     7     2    32    1
     8     3     4    1
     9     4     9   ar
    10     4     5   ar
    11     5     6   ar
    12     5    33    1
    13     6     7   ar
    14     6    34    1
    15     7     8   ar
    16     7    35    1
    17     8     9   ar
    18     8    36    1
    19     9    10    1
    20    10    11    1
    21    10    37    1
    22    10    38    1
    23    11    12    1
    24    11    39    1
    25    11    40    1
    26    12    13   am
    27    12    41    1
    28    13    14    2
    29    13    15    1
    30    15    20   ar
    31    15    16   ar
    32    16    17   ar
    33    16    42    1
    34    17    18   ar
    35    17    43    1
    36    18    26    1
    37    18    19   ar
    38    19    20   ar
    39    19    21    1
    40    20    44    1
    41    21    22   am
    42    21    45    1
    43    22    23    2
    44    22    24    1
    45    24    25    1
    46    24    46    1
    47    24    47    1
    48    25    26   am
    49    25    48    1
    50    26    27    2
@<TRIPOS>SUBSTRUCTURE
     1 ZINC000550217006        1 TEMP              0 ****  ****    0 ROOT


##########                                Name:    ZINC000435005159
##########                DOCK_Rotatable_Bonds:                  12
##########                         Heavy_Atoms:                  30
##########                    Molecular_Weight:             401.508
##########                DOCK_Rotatable_Bonds:                  12
##########                       Formal_Charge:          -0.0399985
##########                     HBond_Acceptors:                   5
##########                        HBond_Donors:                   2
##########                         Heavy_Atoms:                  30
##########                          Grid_Score:          -32.309998
##########                     Grid_vdw_energy:          -30.505228
##########                      Grid_es_energy:           -1.804771
##########           Internal_energy_repulsive:           13.198061

@<TRIPOS>MOLECULE
ZINC000435005159
 57 59 1 0 0
SMALL
USER_CHARGES


@<TRIPOS>ATOM
      1 O1        -11.5832    1.1976   63.1869 O.2     1  ZINC000435005159   -0.5300
      2 C2        -10.4068    0.9053   63.1474 C.2     1  ZINC000435005159    0.5200
      3 C3         -9.5650    0.9987   64.3939 C.3     1  ZINC000435005159   -0.1400
      4 C4         -8.4469   -0.0440   64.3336 C.3     1  ZINC000435005159   -0.1200
      5 C5         -7.6422   -0.0047   65.6342 C.3     1  ZINC000435005159    0.1200
      6 N6         -7.1398    1.3535   65.8566 N.am    1  ZINC000435005159   -0.7200
      7 C7         -5.9819    1.5434   66.5197 C.2     1  ZINC000435005159    0.5600
      8 O8         -5.3552    0.5881   66.9344 O.2     1  ZINC000435005159   -0.5300
      9 C9         -5.4741    2.9139   66.7426 C.ar    1  ZINC000435005159   -0.1900
     10 C10        -6.1890    4.0228   66.2747 C.ar    1  ZINC000435005159   -0.0200
     11 C11        -5.6705    5.2842   66.5098 C.ar    1  ZINC000435005159   -0.1800
     12 C12        -4.4742    5.4080   67.1928 C.ar    1  ZINC000435005159    0.1200
     13 N13        -3.8217    4.3444   67.6220 N.ar    1  ZINC000435005159   -0.4900
     14 C14        -4.2768    3.1242   67.4281 C.ar    1  ZINC000435005159    0.1400
     15 N15        -9.8536    0.4916   61.9901 N.am    1  ZINC000435005159   -0.7300
     16 C16       -10.6720    0.4009   60.7784 C.3     1  ZINC000435005159    0.1900
     17 H17       -11.7242    0.5093   61.0416 H       1  ZINC000435005159    0.1000
     18 C18       -10.2717    1.5141   59.8081 C.3     1  ZINC000435005159   -0.1200
     19 C19       -11.3813    2.5661   59.7532 C.3     1  ZINC000435005159   -0.0800
     20 C20       -12.4670    2.1026   58.8165 C.ar    1  ZINC000435005159   -0.0800
     21 C21       -12.3061    2.2391   57.4503 C.ar    1  ZINC000435005159   -0.1200
     22 C22       -13.3020    1.8139   56.5911 C.ar    1  ZINC000435005159   -0.1200
     23 C23       -14.4587    1.2518   57.0980 C.ar    1  ZINC000435005159   -0.1200
     24 C24       -14.6192    1.1144   58.4641 C.ar    1  ZINC000435005159   -0.1200
     25 C25       -13.6215    1.5356   59.3231 C.ar    1  ZINC000435005159   -0.1200
     26 C26       -10.4534   -0.9388   60.1237 C.ar    1  ZINC000435005159   -0.1000
     27 C27        -9.1752   -1.4532   60.0125 C.ar    1  ZINC000435005159   -0.1100
     28 C28        -8.9746   -2.6820   59.4120 C.ar    1  ZINC000435005159   -0.1200
     29 C29       -10.0523   -3.3967   58.9230 C.ar    1  ZINC000435005159   -0.1200
     30 C30       -11.3305   -2.8825   59.0351 C.ar    1  ZINC000435005159   -0.1200
     31 C31       -11.5316   -1.6557   59.6395 C.ar    1  ZINC000435005159   -0.1000
     32 H32        -9.1289    1.9953   64.4640 H       1  ZINC000435005159    0.1000
     33 H33       -10.1886    0.8126   65.2683 H       1  ZINC000435005159    0.1000
     34 H34        -8.8814   -1.0354   64.2048 H       1  ZINC000435005159    0.0800
     35 H35        -7.7895    0.1765   63.4926 H       1  ZINC000435005159    0.0800
     36 H36        -8.2825   -0.2961   66.4667 H       1  ZINC000435005159    0.0700
     37 H37        -6.8021   -0.6955   65.5627 H       1  ZINC000435005159    0.0700
     38 H38        -7.6406    2.1159   65.5267 H       1  ZINC000435005159    0.4000
     39 H39        -7.1210    3.8970   65.7436 H       1  ZINC000435005159    0.1500
     40 H40        -6.1943    6.1627   66.1632 H       1  ZINC000435005159    0.1500
     41 H41        -4.0674    6.3912   67.3777 H       1  ZINC000435005159    0.1600
     42 H42        -3.7141    2.2784   67.7948 H       1  ZINC000435005159    0.1600
     43 H43        -8.9136    0.2541   61.9595 H       1  ZINC000435005159    0.4000
     44 H44        -9.3470    1.9789   60.1500 H       1  ZINC000435005159    0.0700
     45 H45       -10.1208    1.0929   58.8141 H       1  ZINC000435005159    0.0800
     46 H46       -11.7977    2.7074   60.7504 H       1  ZINC000435005159    0.0700
     47 H47       -10.9701    3.5096   59.3941 H       1  ZINC000435005159    0.0700
     48 H48       -11.4024    2.6784   57.0542 H       1  ZINC000435005159    0.1200
     49 H49       -13.1766    1.9213   55.5237 H       1  ZINC000435005159    0.1200
     50 H50       -15.2370    0.9202   56.4267 H       1  ZINC000435005159    0.1200
     51 H51       -15.5230    0.6754   58.8602 H       1  ZINC000435005159    0.1200
     52 H52       -13.7469    1.4283   60.3904 H       1  ZINC000435005159    0.1200
     53 H53        -8.3332   -0.8950   60.3944 H       1  ZINC000435005159    0.1200
     54 H54        -7.9759   -3.0837   59.3243 H       1  ZINC000435005159    0.1200
     55 H55        -9.8954   -4.3563   58.4533 H       1  ZINC000435005159    0.1200
     56 H56       -12.1725   -3.4406   58.6529 H       1  ZINC000435005159    0.1200
     57 H57       -12.5303   -1.2540   59.7271 H       1  ZINC000435005159    0.1200
@<TRIPOS>BOND
     1     1     2    2
     2     2     3    1
     3     2    15   am
     4     3     4    1
     5     3    32    1
     6     3    33    1
     7     4     5    1
     8     4    34    1
     9     4    35    1
    10     5     6    1
    11     5    36    1
    12     5    37    1
    13     6     7   am
    14     6    38    1
    15     7     8    2
    16     7     9    1
    17     9    14   ar
    18     9    10   ar
    19    10    11   ar
    20    10    39    1
    21    11    12   ar
    22    11    40    1
    23    12    13   ar
    24    12    41    1
    25    13    14   ar
    26    14    42    1
    27    15    16    1
    28    15    43    1
    29    16    17    1
    30    16    18    1
    31    16    26    1
    32    18    19    1
    33    18    44    1
    34    18    45    1
    35    19    20    1
    36    19    46    1
    37    19    47    1
    38    20    25   ar
    39    20    21   ar
    40    21    22   ar
    41    21    48    1
    42    22    23   ar
    43    22    49    1
    44    23    24   ar
    45    23    50    1
    46    24    25   ar
    47    24    51    1
    48    25    52    1
    49    26    31   ar
    50    26    27   ar
    51    27    28   ar
    52    27    53    1
    53    28    29   ar
    54    28    54    1
    55    29    30   ar
    56    29    55    1
    57    30    31   ar
    58    30    56    1
    59    31    57    1
@<TRIPOS>SUBSTRUCTURE
     1 ZINC000435005159        1 TEMP              0 ****  ****    0 ROOT


##########                                Name:    ZINC000020646552
##########                DOCK_Rotatable_Bonds:                   5
##########                         Heavy_Atoms:                  29
##########                    Molecular_Weight:             412.556
##########                DOCK_Rotatable_Bonds:                   5
##########                       Formal_Charge:          -0.0200012
##########                     HBond_Acceptors:                   7
##########                        HBond_Donors:                   0
##########                         Heavy_Atoms:                  29
##########                          Grid_Score:          -32.262127
##########                     Grid_vdw_energy:          -31.482445
##########                      Grid_es_energy:           -0.779681
##########           Internal_energy_repulsive:           19.559214

@<TRIPOS>MOLECULE
ZINC000020646552
 57 60 1 0 0
SMALL
USER_CHARGES


@<TRIPOS>ATOM
      1 C1         -7.6896    6.2836   60.7115 C.3     1  ZINC000020646552    0.0200
      2 N2         -8.6618    5.2300   61.0319 N.3     1  ZINC000020646552   -0.5400
      3 C3         -8.4595    4.7242   62.3961 C.3     1  ZINC000020646552    0.0400
      4 C4         -9.5979    3.7631   62.7550 C.3     1  ZINC000020646552    0.1200
      5 N5         -9.6809    2.7277   61.7138 N.am    1  ZINC000020646552   -0.6100
      6 C6         -9.6959    1.4196   62.0385 C.2     1  ZINC000020646552    0.5300
      7 O7         -9.6421    1.0832   63.2024 O.2     1  ZINC000020646552   -0.5200
      8 C8         -9.7797    0.3753   60.9553 C.3     1  ZINC000020646552   -0.1500
      9 S9        -11.5168    0.0001   60.6121 S.3     1  ZINC000020646552    0.0500
     10 C10       -11.3241   -1.2104   59.3464 C.ar    1  ZINC000020646552    0.1500
     11 N11       -10.1281   -1.7255   59.0822 N.ar    1  ZINC000020646552   -0.5200
     12 C12        -9.9826   -2.6362   58.1298 C.ar    1  ZINC000020646552    0.3800
     13 C13        -8.6343   -3.1933   57.8619 C.ar    1  ZINC000020646552   -0.0500
     14 C14        -7.6647   -3.1902   58.8630 C.ar    1  ZINC000020646552   -0.0700
     15 C15        -6.4120   -3.7103   58.6083 C.ar    1  ZINC000020646552   -0.1300
     16 C16        -6.1180   -4.2340   57.3622 C.ar    1  ZINC000020646552   -0.1000
     17 C17        -7.0763   -4.2393   56.3646 C.ar    1  ZINC000020646552   -0.1300
     18 C18        -8.3342   -3.7270   56.6098 C.ar    1  ZINC000020646552   -0.0700
     19 N19       -11.0117   -3.0613   57.4114 N.ar    1  ZINC000020646552   -0.5200
     20 C20       -12.2335   -2.5883   57.6221 C.ar    1  ZINC000020646552    0.2100
     21 C21       -12.4294   -1.6481   58.6076 C.ar    1  ZINC000020646552   -0.2100
     22 C22       -13.7909   -1.0823   58.9035 C.3     1  ZINC000020646552    0.1100
     23 O23       -14.6855   -1.3628   57.8263 O.3     1  ZINC000020646552   -0.3600
     24 C24       -14.7051   -2.7456   57.4544 C.3     1  ZINC000020646552    0.1100
     25 C25       -14.8828   -3.6110   58.7035 C.3     1  ZINC000020646552   -0.1800
     26 C26       -15.8605   -3.0003   56.4843 C.3     1  ZINC000020646552   -0.1400
     27 C27       -13.3769   -3.0918   56.7813 C.3     1  ZINC000020646552   -0.0900
     28 C28        -9.7476    3.1575   60.3087 C.3     1  ZINC000020646552    0.1100
     29 C29        -8.6034    4.1424   60.0462 C.3     1  ZINC000020646552    0.0400
     30 H30        -7.9093    6.6933   59.7257 H       1  ZINC000020646552    0.0700
     31 H31        -7.7540    7.0763   61.4570 H       1  ZINC000020646552    0.0700
     32 H32        -6.6839    5.8631   60.7143 H       1  ZINC000020646552    0.0300
     33 H33        -7.5073    4.1966   62.4511 H       1  ZINC000020646552    0.0400
     34 H34        -8.4541    5.5593   63.0967 H       1  ZINC000020646552    0.0900
     35 H35        -9.3936    3.2974   63.7191 H       1  ZINC000020646552    0.1000
     36 H36       -10.5388    4.3113   62.8021 H       1  ZINC000020646552    0.0800
     37 H37        -9.3036    0.7518   60.0500 H       1  ZINC000020646552    0.1300
     38 H38        -9.2703   -0.5307   61.2838 H       1  ZINC000020646552    0.1200
     39 H39        -7.8931   -2.7813   59.8361 H       1  ZINC000020646552    0.1400
     40 H40        -5.6597   -3.7082   59.3832 H       1  ZINC000020646552    0.1300
     41 H41        -5.1364   -4.6400   57.1672 H       1  ZINC000020646552    0.1300
     42 H42        -6.8412   -4.6491   55.3935 H       1  ZINC000020646552    0.1300
     43 H43        -9.0817   -3.7316   55.8303 H       1  ZINC000020646552    0.1300
     44 H44       -14.1768   -1.5297   59.8195 H       1  ZINC000020646552    0.0800
     45 H45       -13.7126   -0.0032   59.0364 H       1  ZINC000020646552    0.1100
     46 H46       -15.8225   -3.3543   59.1926 H       1  ZINC000020646552    0.0700
     47 H47       -14.8974   -4.6628   58.4178 H       1  ZINC000020646552    0.0700
     48 H48       -14.0552   -3.4323   59.3901 H       1  ZINC000020646552    0.0600
     49 H49       -15.7281   -2.3874   55.5927 H       1  ZINC000020646552    0.0700
     50 H50       -15.8731   -4.0532   56.2029 H       1  ZINC000020646552    0.0800
     51 H51       -16.8033   -2.7416   56.9663 H       1  ZINC000020646552    0.0700
     52 H52       -13.3335   -2.6190   55.8001 H       1  ZINC000020646552    0.1000
     53 H53       -13.2997   -4.1729   56.6660 H       1  ZINC000020646552    0.1000
     54 H54        -9.6423    2.2913   59.6555 H       1  ZINC000020646552    0.0900
     55 H55       -10.7029    3.6474   60.1206 H       1  ZINC000020646552    0.0800
     56 H56        -8.7022    4.5556   59.0424 H       1  ZINC000020646552    0.0900
     57 H57        -7.6491    3.6230   60.1338 H       1  ZINC000020646552    0.0400
@<TRIPOS>BOND
     1     1     2    1
     2     1    30    1
     3     1    31    1
     4     1    32    1
     5     2    29    1
     6     2     3    1
     7     3     4    1
     8     3    33    1
     9     3    34    1
    10     4     5    1
    11     4    35    1
    12     4    36    1
    13     5     6   am
    14     5    28    1
    15     6     7    2
    16     6     8    1
    17     8     9    1
    18     8    37    1
    19     8    38    1
    20     9    10    1
    21    10    21   ar
    22    10    11   ar
    23    11    12   ar
    24    12    13    1
    25    12    19   ar
    26    13    18   ar
    27    13    14   ar
    28    14    15   ar
    29    14    39    1
    30    15    16   ar
    31    15    40    1
    32    16    17   ar
    33    16    41    1
    34    17    18   ar
    35    17    42    1
    36    18    43    1
    37    19    20   ar
    38    20    27    1
    39    20    21   ar
    40    21    22    1
    41    22    23    1
    42    22    44    1
    43    22    45    1
    44    23    24    1
    45    24    25    1
    46    24    26    1
    47    24    27    1
    48    25    46    1
    49    25    47    1
    50    25    48    1
    51    26    49    1
    52    26    50    1
    53    26    51    1
    54    27    52    1
    55    27    53    1
    56    28    29    1
    57    28    54    1
    58    28    55    1
    59    29    56    1
    60    29    57    1
@<TRIPOS>SUBSTRUCTURE
     1 ZINC000020646552        1 TEMP              0 ****  ****    0 ROOT


##########                                Name:    ZINC001109082135
##########                DOCK_Rotatable_Bonds:                   9
##########                         Heavy_Atoms:                  27
##########                    Molecular_Weight:             373.455
##########                DOCK_Rotatable_Bonds:                   9
##########                       Formal_Charge:          -0.0100003
##########                     HBond_Acceptors:                   8
##########                        HBond_Donors:                   3
##########                         Heavy_Atoms:                  27
##########                          Grid_Score:          -32.220543
##########                     Grid_vdw_energy:          -29.528265
##########                      Grid_es_energy:           -2.692276
##########           Internal_energy_repulsive:           19.004025

@<TRIPOS>MOLECULE
ZINC001109082135
 54 57 1 0 0
SMALL
USER_CHARGES


@<TRIPOS>ATOM
      1 C1        -14.7765   -0.1268   54.2625 C.3     1  ZINC001109082135   -0.1400
      2 C2        -13.2942   -0.4712   54.4210 C.3     1  ZINC001109082135   -0.1400
      3 C3        -13.1367   -1.5429   55.4687 C.2     1  ZINC001109082135    0.5100
      4 O4        -12.2231   -2.3369   55.3913 O.2     1  ZINC001109082135   -0.5400
      5 N5        -14.0109   -1.6191   56.4916 N.am    1  ZINC001109082135   -0.7200
      6 C6        -13.8588   -2.6621   57.5091 C.3     1  ZINC001109082135    0.1000
      7 C7        -12.8447   -2.2210   58.5328 C.2     1  ZINC001109082135    0.5100
      8 O8        -12.3610   -3.0308   59.2953 O.2     1  ZINC001109082135   -0.5300
      9 N9        -12.4751   -0.9267   58.6010 N.am    1  ZINC001109082135   -0.7100
     10 C10       -11.4879   -0.4983   59.5951 C.3     1  ZINC001109082135    0.1100
     11 H11       -10.6378   -1.1804   59.6086 H       1  ZINC001109082135    0.0900
     12 C12       -11.0203    0.9500   59.3098 C.3     1  ZINC001109082135   -0.1600
     13 C13       -11.4514    1.7305   60.5882 C.3     1  ZINC001109082135    0.0600
     14 H14       -10.9226    2.6664   60.7688 H       1  ZINC001109082135    0.1300
     15 C15       -13.0027    1.8421   60.4897 C.3     1  ZINC001109082135   -0.1200
     16 C16       -13.4878    0.3980   60.7666 C.3     1  ZINC001109082135   -0.1100
     17 C17       -12.1379   -0.4035   61.0084 C.3     1  ZINC001109082135    0.0400
     18 H18       -12.2377   -1.3375   61.5614 H       1  ZINC001109082135    0.1200
     19 N19       -11.2869    0.6681   61.6435 N.3     1  ZINC001109082135   -0.4800
     20 C20        -9.8889    0.2315   61.7571 C.3     1  ZINC001109082135    0.0800
     21 C21        -9.4195    0.4143   63.1776 C.2     1  ZINC001109082135    0.2000
     22 C22        -8.7646   -0.5957   63.8147 C.2     1  ZINC001109082135   -0.2900
     23 C23        -8.3385   -0.3914   65.1433 C.2     1  ZINC001109082135    0.5200
     24 O24        -7.7482   -1.2696   65.7502 O.2     1  ZINC001109082135   -0.5400
     25 N25        -8.5973    0.7972   65.7291 N.am    1  ZINC001109082135   -0.6300
     26 C26        -9.2500    1.7564   65.0437 C.2     1  ZINC001109082135    0.4300
     27 C27        -9.5311    3.0775   65.7122 C.3     1  ZINC001109082135   -0.1400
     28 C28        -9.2247    4.3496   64.9193 C.3     1  ZINC001109082135   -0.1400
     29 C29       -10.6757    3.9235   65.1512 C.3     1  ZINC001109082135   -0.1400
     30 N30        -9.6402    1.5687   63.8112 N.2     1  ZINC001109082135   -0.5300
     31 H31       -15.1694    0.2338   55.2131 H       1  ZINC001109082135    0.0600
     32 H32       -14.8904    0.6483   53.5047 H       1  ZINC001109082135    0.0600
     33 H33       -15.3257   -1.0173   53.9567 H       1  ZINC001109082135    0.0600
     34 H34       -12.9013   -0.8318   53.4703 H       1  ZINC001109082135    0.1000
     35 H35       -12.7450    0.4193   54.7268 H       1  ZINC001109082135    0.1000
     36 H36       -14.7408   -0.9833   56.5540 H       1  ZINC001109082135    0.4100
     37 H37       -14.8174   -2.8349   57.9983 H       1  ZINC001109082135    0.1000
     38 H38       -13.5206   -3.5842   57.0365 H       1  ZINC001109082135    0.1000
     39 H39       -12.8628   -0.2789   57.9920 H       1  ZINC001109082135    0.4000
     40 H40        -9.9382    0.9863   59.1847 H       1  ZINC001109082135    0.0800
     41 H41       -11.5231    1.3490   58.4288 H       1  ZINC001109082135    0.0800
     42 H42       -13.3868    2.5274   61.2453 H       1  ZINC001109082135    0.0700
     43 H43       -13.3019    2.1627   59.4918 H       1  ZINC001109082135    0.0700
     44 H44       -14.1124    0.3675   61.6593 H       1  ZINC001109082135    0.0700
     45 H45       -14.0274    0.0027   59.9058 H       1  ZINC001109082135    0.0700
     46 H46        -9.8133   -0.8205   61.4821 H       1  ZINC001109082135    0.1000
     47 H47        -9.2668    0.8274   61.0894 H       1  ZINC001109082135    0.0700
     48 H48        -8.5759   -1.5334   63.3131 H       1  ZINC001109082135    0.1600
     49 H49        -8.3140    0.9605   66.6425 H       1  ZINC001109082135    0.4200
     50 H50        -9.3669    3.1036   66.7894 H       1  ZINC001109082135    0.1300
     51 H51        -8.8588    5.2131   65.4749 H       1  ZINC001109082135    0.1100
     52 H52        -8.8199    4.2310   63.9143 H       1  ZINC001109082135    0.1100
     53 H53       -11.2256    3.5247   64.2988 H       1  ZINC001109082135    0.1100
     54 H54       -11.2644    4.5067   65.8594 H       1  ZINC001109082135    0.1100
@<TRIPOS>BOND
     1     1     2    1
     2     1    31    1
     3     1    32    1
     4     1    33    1
     5     2     3    1
     6     2    34    1
     7     2    35    1
     8     3     4    2
     9     3     5   am
    10     5     6    1
    11     5    36    1
    12     6     7    1
    13     6    37    1
    14     6    38    1
    15     7     8    2
    16     7     9   am
    17     9    10    1
    18     9    39    1
    19    10    11    1
    20    10    17    1
    21    10    12    1
    22    12    13    1
    23    12    40    1
    24    12    41    1
    25    13    14    1
    26    13    19    1
    27    13    15    1
    28    15    16    1
    29    15    42    1
    30    15    43    1
    31    16    17    1
    32    16    44    1
    33    16    45    1
    34    17    18    1
    35    17    19    1
    36    19    20    1
    37    20    21    1
    38    20    46    1
    39    20    47    1
    40    21    30    1
    41    21    22    2
    42    22    23    1
    43    22    48    1
    44    23    24    2
    45    23    25   am
    46    25    26    1
    47    25    49    1
    48    26    27    1
    49    26    30    2
    50    27    29    1
    51    27    28    1
    52    27    50    1
    53    28    29    1
    54    28    51    1
    55    28    52    1
    56    29    53    1
    57    29    54    1
@<TRIPOS>SUBSTRUCTURE
     1 ZINC001109082135        1 TEMP              0 ****  ****    0 ROOT


##########                                Name:    ZINC000991934963
##########                DOCK_Rotatable_Bonds:                   8
##########                         Heavy_Atoms:                  27
##########                    Molecular_Weight:             370.495
##########                DOCK_Rotatable_Bonds:                   8
##########                       Formal_Charge:          -0.0499997
##########                     HBond_Acceptors:                   6
##########                        HBond_Donors:                   1
##########                         Heavy_Atoms:                  27
##########                          Grid_Score:          -32.209274
##########                     Grid_vdw_energy:          -33.082790
##########                      Grid_es_energy:            0.873518
##########           Internal_energy_repulsive:           12.183509

@<TRIPOS>MOLECULE
ZINC000991934963
 57 61 1 0 0
SMALL
USER_CHARGES


@<TRIPOS>ATOM
      1 C1         -5.1726   -3.8052   57.2928 C.3     1  ZINC000991934963    0.0400
      2 O2         -6.1215   -3.7013   58.3563 O.3     1  ZINC000991934963   -0.2900
      3 C3         -7.4315   -3.6833   58.0120 C.ar    1  ZINC000991934963    0.5000
      4 N4         -7.7836   -4.0583   56.7931 N.ar    1  ZINC000991934963   -0.5700
      5 C5         -9.0542   -4.0527   56.4240 C.ar    1  ZINC000991934963    0.1900
      6 C6        -10.0196   -3.6480   57.3318 C.ar    1  ZINC000991934963   -0.2700
      7 C7         -9.6150   -3.2617   58.6001 C.ar    1  ZINC000991934963    0.2200
      8 C8        -10.6291   -2.8138   59.6209 C.3     1  ZINC000991934963    0.1000
      9 N9        -10.8571   -1.3691   59.4833 N.3     1  ZINC000991934963   -0.4900
     10 C10        -9.7980   -0.5883   60.1977 C.3     1  ZINC000991934963    0.0400
     11 C11       -10.5419    0.4135   61.1356 C.3     1  ZINC000991934963   -0.1400
     12 C12       -11.8927    0.5336   60.4330 C.3     1  ZINC000991934963    0.1700
     13 N13       -11.8298    1.3925   59.2479 N.am    1  ZINC000991934963   -0.7000
     14 C14       -11.5764    2.7094   59.3827 C.2     1  ZINC000991934963    0.5200
     15 O15       -11.4018    3.1836   60.4853 O.2     1  ZINC000991934963   -0.5300
     16 C16       -11.5101    3.5926   58.1635 C.3     1  ZINC000991934963   -0.1100
     17 C17       -10.0765    3.6181   57.6295 C.3     1  ZINC000991934963   -0.1300
     18 H18        -9.7561    2.7209   57.0997 H       1  ZINC000991934963    0.1200
     19 C19        -9.0271    4.3618   58.4581 C.3     1  ZINC000991934963   -0.1700
     20 C20        -9.5281    4.9605   57.1414 C.3     1  ZINC000991934963   -0.1200
     21 H21       -10.1885    5.8256   57.2010 H       1  ZINC000991934963    0.1000
     22 C22        -8.5715    4.9414   55.9474 C.3     1  ZINC000991934963   -0.1200
     23 C23        -8.9182    4.0162   54.7793 C.3     1  ZINC000991934963   -0.1800
     24 C24        -9.0761    5.5305   54.6287 C.3     1  ZINC000991934963   -0.1800
     25 C25       -13.1558    0.7566   61.2577 C.3     1  ZINC000991934963   -0.1200
     26 C26       -14.2448    0.0334   60.4056 C.3     1  ZINC000991934963   -0.1200
     27 C27       -13.4896   -1.0526   59.5808 C.3     1  ZINC000991934963   -0.1000
     28 C28       -12.0883   -0.9873   60.0868 C.3     1  ZINC000991934963    0.0500
     29 H29       -12.0989   -1.4710   61.0636 H       1  ZINC000991934963    0.0400
     30 N30        -8.3283   -3.2963   58.9049 N.ar    1  ZINC000991934963   -0.5000
     31 H31        -5.2869   -2.9555   56.6196 H       1  ZINC000991934963    0.0600
     32 H32        -4.1636   -3.8088   57.7052 H       1  ZINC000991934963    0.1100
     33 H33        -5.3435   -4.7303   56.7424 H       1  ZINC000991934963    0.0600
     34 H34        -9.3353   -4.3596   55.4274 H       1  ZINC000991934963    0.1700
     35 H35       -11.0641   -3.6333   57.0572 H       1  ZINC000991934963    0.1500
     36 H36       -11.5664   -3.3465   59.4600 H       1  ZINC000991934963    0.1000
     37 H37       -10.2562   -3.0290   60.6222 H       1  ZINC000991934963    0.0600
     38 H38        -9.1732   -1.2589   60.7876 H       1  ZINC000991934963    0.0600
     39 H39        -9.1864   -0.0432   59.4786 H       1  ZINC000991934963    0.0800
     40 H40       -10.6570    0.0003   62.1377 H       1  ZINC000991934963    0.0800
     41 H41       -10.0297    1.3752   61.1667 H       1  ZINC000991934963    0.0900
     42 H42       -11.9707    1.0135   58.3662 H       1  ZINC000991934963    0.4000
     43 H43       -12.1770    3.2018   57.3951 H       1  ZINC000991934963    0.1000
     44 H44       -11.8164    4.6040   58.4303 H       1  ZINC000991934963    0.0900
     45 H45        -9.3580    4.8329   59.3836 H       1  ZINC000991934963    0.0900
     46 H46        -8.0163    3.9541   58.4731 H       1  ZINC000991934963    0.1000
     47 H47        -7.5169    5.0757   56.1879 H       1  ZINC000991934963    0.1000
     48 H48        -8.0914    3.5414   54.2509 H       1  ZINC000991934963    0.0900
     49 H49        -9.8276    3.4211   54.8613 H       1  ZINC000991934963    0.0900
     50 H50       -10.0894    5.9317   54.6116 H       1  ZINC000991934963    0.0900
     51 H51        -8.3532    6.0520   54.0011 H       1  ZINC000991934963    0.0900
     52 H52       -13.0632    0.2949   62.2407 H       1  ZINC000991934963    0.0800
     53 H53       -13.3772    1.8202   61.3475 H       1  ZINC000991934963    0.0800
     54 H54       -14.9822   -0.4351   61.0574 H       1  ZINC000991934963    0.0700
     55 H55       -14.7309    0.7432   59.7363 H       1  ZINC000991934963    0.0700
     56 H56       -13.9166   -2.0381   59.7664 H       1  ZINC000991934963    0.0700
     57 H57       -13.5226   -0.8155   58.5174 H       1  ZINC000991934963    0.0700
@<TRIPOS>BOND
     1     1     2    1
     2     1    31    1
     3     1    32    1
     4     1    33    1
     5     2     3    1
     6     3    30   ar
     7     3     4   ar
     8     4     5   ar
     9     5     6   ar
    10     5    34    1
    11     6     7   ar
    12     6    35    1
    13     7     8    1
    14     7    30   ar
    15     8     9    1
    16     8    36    1
    17     8    37    1
    18     9    28    1
    19     9    10    1
    20    10    11    1
    21    10    38    1
    22    10    39    1
    23    11    12    1
    24    11    40    1
    25    11    41    1
    26    12    28    1
    27    12    13    1
    28    12    25    1
    29    13    14   am
    30    13    42    1
    31    14    15    2
    32    14    16    1
    33    16    17    1
    34    16    43    1
    35    16    44    1
    36    17    18    1
    37    17    20    1
    38    17    19    1
    39    19    20    1
    40    19    45    1
    41    19    46    1
    42    20    21    1
    43    20    22    1
    44    22    24    1
    45    22    23    1
    46    22    47    1
    47    23    24    1
    48    23    48    1
    49    23    49    1
    50    24    50    1
    51    24    51    1
    52    25    26    1
    53    25    52    1
    54    25    53    1
    55    26    27    1
    56    26    54    1
    57    26    55    1
    58    27    28    1
    59    27    56    1
    60    27    57    1
    61    28    29    1
@<TRIPOS>SUBSTRUCTURE
     1 ZINC000991934963        1 TEMP              0 ****  ****    0 ROOT


##########                                Name:    ZINC000008416770
##########                DOCK_Rotatable_Bonds:                  13
##########                         Heavy_Atoms:                  30
##########                    Molecular_Weight:             412.442
##########                DOCK_Rotatable_Bonds:                  13
##########                       Formal_Charge:          -0.0199998
##########                     HBond_Acceptors:                   8
##########                        HBond_Donors:                   2
##########                         Heavy_Atoms:                  30
##########                          Grid_Score:          -32.180115
##########                     Grid_vdw_energy:          -30.105303
##########                      Grid_es_energy:           -2.074814
##########           Internal_energy_repulsive:          189.672348

@<TRIPOS>MOLECULE
ZINC000008416770
 54 55 1 0 0
SMALL
USER_CHARGES


@<TRIPOS>ATOM
      1 C1        -14.4131    2.3324   48.7215 C.3     1  ZINC000008416770   -0.1500
      2 C2        -13.1382    2.7252   49.4707 C.3     1  ZINC000008416770    0.0600
      3 O3        -12.8551    1.7364   50.4956 O.3     1  ZINC000008416770   -0.3500
      4 C4        -13.7924    1.5557   51.4467 C.2     1  ZINC000008416770    0.5100
      5 O5        -14.8182    2.2061   51.4202 O.2     1  ZINC000008416770   -0.5100
      6 C6        -13.5728    0.5684   52.5200 C.ar    1  ZINC000008416770   -0.1500
      7 C7        -14.5468    0.3752   53.5042 C.ar    1  ZINC000008416770   -0.0400
      8 C8        -14.3387   -0.5475   54.5042 C.ar    1  ZINC000008416770   -0.1400
      9 C9        -13.1607   -1.2874   54.5363 C.ar    1  ZINC000008416770    0.1800
     10 N10       -12.9533   -2.2211   55.5507 N.am    1  ZINC000008416770   -0.6700
     11 C11       -13.8930   -2.4057   56.4989 C.2     1  ZINC000008416770    0.5200
     12 O12       -14.9191   -1.7598   56.4698 O.2     1  ZINC000008416770   -0.5100
     13 C13       -13.6689   -3.4150   57.5954 C.3     1  ZINC000008416770   -0.1300
     14 C14       -14.1572   -2.8391   58.9262 C.3     1  ZINC000008416770   -0.1000
     15 C15       -13.3992   -1.5736   59.2343 C.2     1  ZINC000008416770    0.4700
     16 O16       -12.2444   -1.4636   58.8963 O.2     1  ZINC000008416770   -0.5100
     17 O17       -14.0069   -0.5686   59.8843 O.3     1  ZINC000008416770   -0.3300
     18 C18       -13.2159    0.6204   60.1467 C.3     1  ZINC000008416770    0.0500
     19 C19       -12.3100    0.3712   61.3249 C.2     1  ZINC000008416770    0.5100
     20 O20       -12.6931   -0.3124   62.2507 O.2     1  ZINC000008416770   -0.4900
     21 N21       -11.0739    0.9077   61.3497 N.am    1  ZINC000008416770   -0.6700
     22 C22       -10.2326    0.6763   62.4436 C.ar    1  ZINC000008416770    0.1400
     23 C23       -10.4201    1.3792   63.6266 C.ar    1  ZINC000008416770   -0.1400
     24 C24        -9.5880    1.1485   64.7046 C.ar    1  ZINC000008416770   -0.1000
     25 C25        -8.5689    0.2191   64.6066 C.ar    1  ZINC000008416770   -0.1000
     26 C26        -7.6625   -0.0298   65.7847 C.3     1  ZINC000008416770   -0.1200
     27 C27        -8.3798   -0.4827   63.4303 C.ar    1  ZINC000008416770   -0.1000
     28 C28        -9.2120   -0.2608   62.3507 C.ar    1  ZINC000008416770   -0.1200
     29 C29       -12.1893   -1.0980   53.5581 C.ar    1  ZINC000008416770   -0.1600
     30 C30       -12.3927   -0.1806   52.5523 C.ar    1  ZINC000008416770   -0.0300
     31 H31       -14.2752    1.3564   48.2564 H       1  ZINC000008416770    0.0700
     32 H32       -15.2468    2.2866   49.4224 H       1  ZINC000008416770    0.0700
     33 H33       -14.6257    3.0748   47.9522 H       1  ZINC000008416770    0.0800
     34 H34       -12.3046    2.7712   48.7699 H       1  ZINC000008416770    0.0700
     35 H35       -13.2761    3.7013   49.9358 H       1  ZINC000008416770    0.0700
     36 H36       -15.4611    0.9494   53.4801 H       1  ZINC000008416770    0.1400
     37 H37       -15.0904   -0.6971   55.2650 H       1  ZINC000008416770    0.1400
     38 H38       -12.1327   -2.7377   55.5739 H       1  ZINC000008416770    0.4200
     39 H39       -14.2221   -4.3264   57.3691 H       1  ZINC000008416770    0.1100
     40 H40       -12.6055   -3.6436   57.6669 H       1  ZINC000008416770    0.1100
     41 H41       -15.2221   -2.6171   58.8571 H       1  ZINC000008416770    0.1200
     42 H42       -13.9885   -3.5663   59.7204 H       1  ZINC000008416770    0.1200
     43 H43       -12.6143    0.8575   59.2693 H       1  ZINC000008416770    0.1100
     44 H44       -13.8793    1.4563   60.3689 H       1  ZINC000008416770    0.1100
     45 H45       -10.7674    1.4543   60.6094 H       1  ZINC000008416770    0.4100
     46 H46       -11.2155    2.1057   63.7035 H       1  ZINC000008416770    0.1300
     47 H47        -9.7333    1.6948   65.6248 H       1  ZINC000008416770    0.1300
     48 H48        -8.0809   -0.8234   66.4037 H       1  ZINC000008416770    0.0700
     49 H49        -6.6768   -0.3285   65.4280 H       1  ZINC000008416770    0.0700
     50 H50        -7.5743    0.8827   66.3744 H       1  ZINC000008416770    0.0700
     51 H51        -7.5828   -1.2080   63.3570 H       1  ZINC000008416770    0.1300
     52 H52        -9.0638   -0.8093   61.4321 H       1  ZINC000008416770    0.1300
     53 H53       -11.2764   -1.6743   53.5859 H       1  ZINC000008416770    0.1400
     54 H54       -11.6384   -0.0340   51.7935 H       1  ZINC000008416770    0.1400
@<TRIPOS>BOND
     1     1     2    1
     2     1    31    1
     3     1    32    1
     4     1    33    1
     5     2     3    1
     6     2    34    1
     7     2    35    1
     8     3     4    1
     9     4     5    2
    10     4     6    1
    11     6    30   ar
    12     6     7   ar
    13     7     8   ar
    14     7    36    1
    15     8     9   ar
    16     8    37    1
    17     9    10    1
    18     9    29   ar
    19    10    11   am
    20    10    38    1
    21    11    12    2
    22    11    13    1
    23    13    14    1
    24    13    39    1
    25    13    40    1
    26    14    15    1
    27    14    41    1
    28    14    42    1
    29    15    16    2
    30    15    17    1
    31    17    18    1
    32    18    19    1
    33    18    43    1
    34    18    44    1
    35    19    20    2
    36    19    21   am
    37    21    22    1
    38    21    45    1
    39    22    28   ar
    40    22    23   ar
    41    23    24   ar
    42    23    46    1
    43    24    25   ar
    44    24    47    1
    45    25    26    1
    46    25    27   ar
    47    26    48    1
    48    26    49    1
    49    26    50    1
    50    27    28   ar
    51    27    51    1
    52    28    52    1
    53    29    30   ar
    54    29    53    1
    55    30    54    1
@<TRIPOS>SUBSTRUCTURE
     1 ZINC000008416770        1 TEMP              0 ****  ****    0 ROOT


##########                                Name:    ZINC000326056918
##########                DOCK_Rotatable_Bonds:                   6
##########                         Heavy_Atoms:                  24
##########                    Molecular_Weight:             408.326
##########                DOCK_Rotatable_Bonds:                   6
##########                       Formal_Charge:         -0.00999978
##########                     HBond_Acceptors:                   9
##########                        HBond_Donors:                   0
##########                         Heavy_Atoms:                  24
##########                          Grid_Score:          -32.164299
##########                     Grid_vdw_energy:          -27.963764
##########                      Grid_es_energy:           -4.200537
##########           Internal_energy_repulsive:           26.102474

@<TRIPOS>MOLECULE
ZINC000326056918
 39 40 1 0 0
SMALL
USER_CHARGES


@<TRIPOS>ATOM
      1 C1        -11.2550    1.4905   63.9622 C.3     1  ZINC000326056918    0.0400
      2 O2        -11.4826    1.3898   62.5317 O.3     1  ZINC000326056918   -0.3500
      3 C3        -12.7144    1.7088   62.0836 C.2     1  ZINC000326056918    0.5000
      4 O4        -13.6252    1.8722   62.8729 O.2     1  ZINC000326056918   -0.4300
      5 C5        -12.9548    1.8582   60.6473 C.2     1  ZINC000326056918   -0.1600
      6 C6        -13.0457    0.8328   59.7471 C.2     1  ZINC000326056918   -0.6200
      7 S7        -12.8834   -0.8643   60.1923 S.o2    1  ZINC000326056918    2.6900
      8 O8        -13.0080   -0.9219   61.6067 O.2     1  ZINC000326056918   -0.9100
      9 O9        -13.7233   -1.5933   59.3078 O.2     1  ZINC000326056918   -0.9400
     10 N10       -11.3296   -1.3168   59.8410 N.am    1  ZINC000326056918   -0.9900
     11 C11       -10.3958   -0.3452   59.2666 C.3     1  ZINC000326056918    0.0900
     12 C12       -10.8889   -2.6890   60.1046 C.3     1  ZINC000326056918    0.1500
     13 C13        -9.8914   -3.1065   59.0551 C.ar    1  ZINC000326056918   -0.0900
     14 C14        -8.5440   -3.1472   59.3600 C.ar    1  ZINC000326056918   -0.0800
     15 C15        -7.6282   -3.5297   58.3977 C.ar    1  ZINC000326056918   -0.1100
     16 C16        -8.0600   -3.8723   57.1289 C.ar    1  ZINC000326056918   -0.0200
     17 Cl17       -6.9099   -4.3532   55.9208 Cl      1  ZINC000326056918   -0.0600
     18 C18        -9.4088   -3.8322   56.8232 C.ar    1  ZINC000326056918   -0.1100
     19 C19       -10.3250   -3.4545   57.7880 C.ar    1  ZINC000326056918   -0.0300
     20 Cl20      -12.0177   -3.4043   57.4055 Cl      1  ZINC000326056918   -0.0100
     21 C21       -13.2770    1.2578   58.4610 C.2     1  ZINC000326056918   -0.0400
     22 C22       -13.4135    0.3002   57.3054 C.3     1  ZINC000326056918   -0.1100
     23 C23       -13.3727    2.5843   58.3097 C.2     1  ZINC000326056918   -0.2600
     24 S24       -13.1806    3.3846   59.8041 S.3     1  ZINC000326056918    0.3100
     25 H25       -10.2269    1.2067   64.1874 H       1  ZINC000326056918    0.1100
     26 H26       -11.4279    2.5167   64.2862 H       1  ZINC000326056918    0.0700
     27 H27       -11.9393    0.8236   64.4868 H       1  ZINC000326056918    0.0700
     28 H28        -9.9362    0.2343   60.0673 H       1  ZINC000326056918    0.0600
     29 H29        -9.6215   -0.8714   58.7085 H       1  ZINC000326056918    0.0700
     30 H30       -10.9349    0.3247   58.5966 H       1  ZINC000326056918    0.0900
     31 H31       -10.4229   -2.7381   61.0887 H       1  ZINC000326056918    0.1100
     32 H32       -11.7485   -3.3585   60.0758 H       1  ZINC000326056918    0.0900
     33 H33        -8.2064   -2.8798   60.3505 H       1  ZINC000326056918    0.1400
     34 H34        -6.5753   -3.5607   58.6364 H       1  ZINC000326056918    0.1400
     35 H35        -9.7464   -4.0997   55.8328 H       1  ZINC000326056918    0.1500
     36 H36       -14.4357   -0.0760   57.2640 H       1  ZINC000326056918    0.0900
     37 H37       -13.1788    0.8176   56.3751 H       1  ZINC000326056918    0.0700
     38 H38       -12.7247   -0.5336   57.4411 H       1  ZINC000326056918    0.0900
     39 H39       -13.5516    3.0814   57.3677 H       1  ZINC000326056918    0.1800
@<TRIPOS>BOND
     1     1     2    1
     2     1    25    1
     3     1    26    1
     4     1    27    1
     5     2     3    1
     6     3     4    2
     7     3     5    1
     8     5    24    1
     9     5     6    2
    10     6     7    1
    11     6    21    1
    12     7     8    2
    13     7     9    2
    14     7    10   am
    15    10    11    1
    16    10    12    1
    17    11    28    1
    18    11    29    1
    19    11    30    1
    20    12    13    1
    21    12    31    1
    22    12    32    1
    23    13    19   ar
    24    13    14   ar
    25    14    15   ar
    26    14    33    1
    27    15    16   ar
    28    15    34    1
    29    16    17    1
    30    16    18   ar
    31    18    19   ar
    32    18    35    1
    33    19    20    1
    34    21    22    1
    35    21    23    2
    36    22    36    1
    37    22    37    1
    38    22    38    1
    39    23    24    1
    40    23    39    1
@<TRIPOS>SUBSTRUCTURE
     1 ZINC000326056918        1 TEMP              0 ****  ****    0 ROOT


##########                                Name:    ZINC000680410869
##########                DOCK_Rotatable_Bonds:                   6
##########                         Heavy_Atoms:                  24
##########                    Molecular_Weight:             335.354
##########                DOCK_Rotatable_Bonds:                   6
##########                       Formal_Charge:        -1.04308e-07
##########                     HBond_Acceptors:                   7
##########                        HBond_Donors:                   0
##########                         Heavy_Atoms:                  24
##########                          Grid_Score:          -32.161140
##########                     Grid_vdw_energy:          -29.292376
##########                      Grid_es_energy:           -2.868765
##########           Internal_energy_repulsive:           10.815682

@<TRIPOS>MOLECULE
ZINC000680410869
 43 45 1 0 0
SMALL
USER_CHARGES


@<TRIPOS>ATOM
      1 O1        -14.7293    0.4696   61.2911 O.2     1  ZINC000680410869   -0.5200
      2 C2        -13.5624    0.4263   60.9529 C.2     1  ZINC000680410869    0.6100
      3 C3        -12.5860    1.3617   61.5475 C.2     1  ZINC000680410869    0.0100
      4 N4        -12.3365    2.5932   61.1490 N.2     1  ZINC000680410869   -0.2500
      5 N5        -11.4302    3.1214   61.8907 N.pl3   1  ZINC000680410869   -0.3500
      6 C6        -10.9073    4.4810   61.7346 C.3     1  ZINC000680410869    0.5000
      7 F7         -9.8721    4.4773   60.7935 F       1  ZINC000680410869   -0.1600
      8 F8        -11.9318    5.3274   61.2977 F       1  ZINC000680410869   -0.1700
      9 C9        -11.0294    2.2435   62.8351 C.2     1  ZINC000680410869    0.0100
     10 C10       -11.7448    1.1083   62.6568 C.2     1  ZINC000680410869   -0.1700
     11 N11       -13.1586   -0.4788   60.0397 N.am    1  ZINC000680410869   -0.6000
     12 C12       -14.1128   -1.4209   59.4335 C.3     1  ZINC000680410869    0.0800
     13 C13       -13.5369   -2.8365   59.5535 C.3     1  ZINC000680410869    0.0500
     14 O14       -12.2085   -2.8506   59.0254 O.3     1  ZINC000680410869   -0.3700
     15 C15       -11.2898   -2.0118   59.7297 C.3     1  ZINC000680410869    0.0800
     16 H16       -11.2597   -2.3052   60.7791 H       1  ZINC000680410869    0.0600
     17 C17        -9.8945   -2.1558   59.1186 C.3     1  ZINC000680410869   -0.1000
     18 C18        -9.7607   -3.5363   58.4726 C.3     1  ZINC000680410869   -0.0800
     19 C19        -8.4174   -3.6474   57.7986 C.ar    1  ZINC000680410869   -0.0800
     20 C20        -7.2587   -3.5327   58.5438 C.ar    1  ZINC000680410869   -0.1200
     21 C21        -6.0265   -3.6347   57.9256 C.ar    1  ZINC000680410869   -0.1200
     22 C22        -5.9529   -3.8517   56.5624 C.ar    1  ZINC000680410869   -0.1300
     23 C23        -7.1116   -3.9673   55.8174 C.ar    1  ZINC000680410869   -0.1200
     24 C24        -8.3439   -3.8696   56.4362 C.ar    1  ZINC000680410869   -0.1200
     25 C25       -11.7516   -0.5501   59.6146 C.3     1  ZINC000680410869    0.0600
     26 H26       -10.5263    4.8358   62.6922 H       1  ZINC000680410869    0.1700
     27 H27       -10.2807    2.4163   63.5941 H       1  ZINC000680410869    0.1900
     28 H28       -11.6827    0.1987   63.2357 H       1  ZINC000680410869    0.1700
     29 H29       -15.0662   -1.3667   59.9590 H       1  ZINC000680410869    0.1000
     30 H30       -14.2576   -1.1713   58.3824 H       1  ZINC000680410869    0.0800
     31 H31       -13.5150   -3.1330   60.6022 H       1  ZINC000680410869    0.0600
     32 H32       -14.1598   -3.5318   58.9907 H       1  ZINC000680410869    0.1100
     33 H33        -9.7478   -1.3848   58.3622 H       1  ZINC000680410869    0.0800
     34 H34        -9.1425   -2.0459   59.9000 H       1  ZINC000680410869    0.0800
     35 H35        -9.8473   -4.3062   59.2393 H       1  ZINC000680410869    0.0700
     36 H36       -10.5504   -3.6694   57.7331 H       1  ZINC000680410869    0.0800
     37 H37        -7.3162   -3.3632   59.6089 H       1  ZINC000680410869    0.1200
     38 H38        -5.1212   -3.5444   58.5077 H       1  ZINC000680410869    0.1200
     39 H39        -4.9902   -3.9306   56.0793 H       1  ZINC000680410869    0.1200
     40 H40        -7.0542   -4.1365   54.7522 H       1  ZINC000680410869    0.1200
     41 H41        -9.2491   -3.9599   55.8542 H       1  ZINC000680410869    0.1200
     42 H42       -11.6571   -0.2156   58.5816 H       1  ZINC000680410869    0.0800
     43 H43       -11.1416    0.0797   60.2623 H       1  ZINC000680410869    0.1300
@<TRIPOS>BOND
     1     1     2    2
     2     2     3    1
     3     2    11   am
     4     3    10    1
     5     3     4    2
     6     4     5    1
     7     5     6    1
     8     5     9    1
     9     6     7    1
    10     6     8    1
    11     6    26    1
    12     9    10    2
    13     9    27    1
    14    10    28    1
    15    11    25    1
    16    11    12    1
    17    12    13    1
    18    12    29    1
    19    12    30    1
    20    13    14    1
    21    13    31    1
    22    13    32    1
    23    14    15    1
    24    15    16    1
    25    15    17    1
    26    15    25    1
    27    17    18    1
    28    17    33    1
    29    17    34    1
    30    18    19    1
    31    18    35    1
    32    18    36    1
    33    19    24   ar
    34    19    20   ar
    35    20    21   ar
    36    20    37    1
    37    21    22   ar
    38    21    38    1
    39    22    23   ar
    40    22    39    1
    41    23    24   ar
    42    23    40    1
    43    24    41    1
    44    25    42    1
    45    25    43    1
@<TRIPOS>SUBSTRUCTURE
     1 ZINC000680410869        1 TEMP              0 ****  ****    0 ROOT


##########                                Name:    ZINC000859608860
##########                DOCK_Rotatable_Bonds:                   8
##########                         Heavy_Atoms:                  24
##########                    Molecular_Weight:             394.268
##########                DOCK_Rotatable_Bonds:                   8
##########                       Formal_Charge:          -0.0200003
##########                     HBond_Acceptors:                   6
##########                        HBond_Donors:                   1
##########                         Heavy_Atoms:                  24
##########                          Grid_Score:          -32.080173
##########                     Grid_vdw_energy:          -26.865957
##########                      Grid_es_energy:           -5.214217
##########           Internal_energy_repulsive:            9.986040

@<TRIPOS>MOLECULE
ZINC000859608860
 44 45 1 0 0
SMALL
USER_CHARGES


@<TRIPOS>ATOM
      1 C1         -9.8735    6.4920   60.1669 C.3     1  ZINC000859608860   -0.1400
      2 C2         -9.6236    5.2337   61.0008 C.3     1  ZINC000859608860   -0.0800
      3 C3         -9.4026    4.0403   60.0694 C.3     1  ZINC000859608860   -0.1400
      4 C4         -8.3825    5.4376   61.8720 C.3     1  ZINC000859608860   -0.1400
      5 C5        -10.8358    4.9654   61.8948 C.3     1  ZINC000859608860    0.1300
      6 N6        -10.5971    3.7599   62.6923 N.am    1  ZINC000859608860   -0.7300
      7 C7        -11.6335    2.9852   63.0693 C.2     1  ZINC000859608860    0.5100
      8 O8        -12.7639    3.2868   62.7497 O.2     1  ZINC000859608860   -0.5100
      9 C9        -11.3878    1.7441   63.8882 C.3     1  ZINC000859608860    0.0500
     10 O10       -11.0882    0.6321   63.0038 O.3     1  ZINC000859608860   -0.3100
     11 C11       -12.1126    0.1253   62.2891 C.2     1  ZINC000859608860    0.5600
     12 O12       -13.2512    0.4803   62.5233 O.2     1  ZINC000859608860   -0.5100
     13 C13       -11.8524   -0.8576   61.2254 C.2     1  ZINC000859608860   -0.0400
     14 C14       -10.6327   -1.1717   60.6983 C.2     1  ZINC000859608860    0.0500
     15 N15       -10.8485   -2.1216   59.7482 N.pl3   1  ZINC000859608860   -0.4100
     16 C16        -9.8703   -2.7338   58.9515 C.ar    1  ZINC000859608860    0.1400
     17 C17       -10.1772   -3.1332   57.6578 C.ar    1  ZINC000859608860   -0.1200
     18 C18        -9.2118   -3.7355   56.8749 C.ar    1  ZINC000859608860   -0.0600
     19 C19        -7.9398   -3.9410   57.3791 C.ar    1  ZINC000859608860   -0.1000
     20 Br20       -6.6206   -4.7660   56.3044 Br      1  ZINC000859608860   -0.0300
     21 C21        -7.6314   -3.5435   58.6678 C.ar    1  ZINC000859608860   -0.0600
     22 C22        -8.5918   -2.9364   59.4531 C.ar    1  ZINC000859608860   -0.1200
     23 C23       -12.1865   -2.3699   59.7114 C.2     1  ZINC000859608860    0.2000
     24 N24       -12.7812   -1.6212   60.5943 N.2     1  ZINC000859608860   -0.4300
     25 H25       -10.7576    6.3469   59.5462 H       1  ZINC000859608860    0.0500
     26 H26       -10.0309    7.3423   60.8305 H       1  ZINC000859608860    0.0600
     27 H27        -9.0098    6.6832   59.5300 H       1  ZINC000859608860    0.0600
     28 H28        -8.5389    4.2314   59.4325 H       1  ZINC000859608860    0.0600
     29 H29        -9.2244    3.1438   60.6635 H       1  ZINC000859608860    0.0600
     30 H30       -10.2867    3.8951   59.4487 H       1  ZINC000859608860    0.0500
     31 H31        -8.5400    6.2878   62.5356 H       1  ZINC000859608860    0.0600
     32 H32        -8.2045    4.5412   62.4661 H       1  ZINC000859608860    0.0600
     33 H33        -7.5188    5.6288   61.2351 H       1  ZINC000859608860    0.0600
     34 H34       -10.9927    5.8153   62.5591 H       1  ZINC000859608860    0.0700
     35 H35       -11.7202    4.8212   61.2741 H       1  ZINC000859608860    0.0700
     36 H36        -9.6932    3.5193   62.9490 H       1  ZINC000859608860    0.4000
     37 H37       -10.5452    1.9122   64.5588 H       1  ZINC000859608860    0.1000
     38 H38       -12.2777    1.5130   64.4737 H       1  ZINC000859608860    0.1000
     39 H39        -9.6804   -0.7476   60.9807 H       1  ZINC000859608860    0.2000
     40 H40       -11.1701   -2.9733   57.2640 H       1  ZINC000859608860    0.1400
     41 H41        -9.4503   -4.0467   55.8686 H       1  ZINC000859608860    0.1500
     42 H42        -6.6377   -3.7050   59.0591 H       1  ZINC000859608860    0.1500
     43 H43        -8.3505   -2.6263   60.4591 H       1  ZINC000859608860    0.1500
     44 H44       -12.6752   -3.0771   59.0577 H       1  ZINC000859608860    0.2200
@<TRIPOS>BOND
     1     1     2    1
     2     1    25    1
     3     1    26    1
     4     1    27    1
     5     2     3    1
     6     2     4    1
     7     2     5    1
     8     3    28    1
     9     3    29    1
    10     3    30    1
    11     4    31    1
    12     4    32    1
    13     4    33    1
    14     5     6    1
    15     5    34    1
    16     5    35    1
    17     6     7   am
    18     6    36    1
    19     7     8    2
    20     7     9    1
    21     9    10    1
    22     9    37    1
    23     9    38    1
    24    10    11    1
    25    11    12    2
    26    11    13    1
    27    13    24    1
    28    13    14    2
    29    14    15    1
    30    14    39    1
    31    15    16    1
    32    15    23    1
    33    16    22   ar
    34    16    17   ar
    35    17    18   ar
    36    17    40    1
    37    18    19   ar
    38    18    41    1
    39    19    20    1
    40    19    21   ar
    41    21    22   ar
    42    21    42    1
    43    22    43    1
    44    23    24    2
    45    23    44    1
@<TRIPOS>SUBSTRUCTURE
     1 ZINC000859608860        1 TEMP              0 ****  ****    0 ROOT


##########                                Name:    ZINC000918875053
##########                DOCK_Rotatable_Bonds:                   6
##########                         Heavy_Atoms:                  26
##########                    Molecular_Weight:             359.357
##########                DOCK_Rotatable_Bonds:                   6
##########                       Formal_Charge:           0.0200003
##########                     HBond_Acceptors:                   8
##########                        HBond_Donors:                   0
##########                         Heavy_Atoms:                  26
##########                          Grid_Score:          -32.053368
##########                     Grid_vdw_energy:          -31.150318
##########                      Grid_es_energy:           -0.903049
##########           Internal_energy_repulsive:           11.334367

@<TRIPOS>MOLECULE
ZINC000918875053
 44 47 1 0 0
SMALL
USER_CHARGES


@<TRIPOS>ATOM
      1 C1        -12.2508   -3.4850   56.9473 C.3     1  ZINC000918875053   -0.1700
      2 C2        -11.4678   -2.6545   57.9663 C.3     1  ZINC000918875053    0.1900
      3 H3        -11.5590   -1.5967   57.7197 H       1  ZINC000918875053    0.1400
      4 O4        -12.0026   -2.8895   59.2956 O.3     1  ZINC000918875053   -0.3400
      5 C5        -13.1149   -2.2178   59.6324 C.2     1  ZINC000918875053    0.4800
      6 O6        -14.1485   -2.8153   59.8183 O.2     1  ZINC000918875053   -0.4900
      7 C7        -13.0746   -0.7185   59.7785 C.3     1  ZINC000918875053   -0.0900
      8 H8        -12.9320   -0.2380   58.8105 H       1  ZINC000918875053    0.1400
      9 C9        -14.3535   -0.1955   60.4726 C.3     1  ZINC000918875053   -0.1400
     10 C10       -13.8639    0.9377   61.3472 C.2     1  ZINC000918875053    0.5300
     11 O11       -14.5720    1.7889   61.8423 O.2     1  ZINC000918875053   -0.5000
     12 N12       -12.5301    0.8637   61.4961 N.am    1  ZINC000918875053   -0.5800
     13 C13       -11.7667    1.7707   62.2417 C.ar    1  ZINC000918875053    0.1000
     14 C14       -12.1287    2.0770   63.5459 C.ar    1  ZINC000918875053   -0.0800
     15 C15       -11.3734    2.9719   64.2795 C.ar    1  ZINC000918875053   -0.1200
     16 C16       -10.2578    3.5630   63.7163 C.ar    1  ZINC000918875053   -0.0800
     17 C17        -9.8929    3.2609   62.4168 C.ar    1  ZINC000918875053   -0.1500
     18 C18       -10.6406    2.3621   61.6788 C.ar    1  ZINC000918875053    0.1100
     19 F19       -10.2841    2.0666   60.4098 F       1  ZINC000918875053   -0.1300
     20 C20       -11.9758   -0.2895   60.7759 C.3     1  ZINC000918875053    0.1200
     21 C21       -10.0155   -3.0552   57.9311 C.2     1  ZINC000918875053    0.1800
     22 N22        -9.4287   -3.7849   57.0131 N.2     1  ZINC000918875053   -0.4600
     23 C23        -8.1424   -3.8807   57.3942 C.2     1  ZINC000918875053    0.2100
     24 C24        -7.0497   -4.6215   56.6675 C.3     1  ZINC000918875053   -0.0900
     25 C25        -6.3708   -3.9085   55.4964 C.3     1  ZINC000918875053   -0.1600
     26 C26        -5.6204   -4.0964   56.8165 C.3     1  ZINC000918875053   -0.1500
     27 N27        -8.0150   -3.2168   58.5040 N.2     1  ZINC000918875053   -0.3700
     28 O28        -9.0782   -2.7299   58.8264 O.3     1  ZINC000918875053    0.1000
     29 H29       -13.3013   -3.1953   56.9728 H       1  ZINC000918875053    0.0900
     30 H30       -11.8493   -3.3087   55.9495 H       1  ZINC000918875053    0.0900
     31 H31       -12.1596   -4.5429   57.1940 H       1  ZINC000918875053    0.0800
     32 H32       -15.0652    0.1729   59.7338 H       1  ZINC000918875053    0.1300
     33 H33       -14.8051   -0.9792   61.0810 H       1  ZINC000918875053    0.1100
     34 H34       -13.0004    1.6166   63.9871 H       1  ZINC000918875053    0.1400
     35 H35       -11.6553    3.2102   65.2945 H       1  ZINC000918875053    0.1400
     36 H36        -9.6701    4.2624   64.2922 H       1  ZINC000918875053    0.1400
     37 H37        -9.0208    3.7244   61.9798 H       1  ZINC000918875053    0.1400
     38 H38       -11.7609   -1.1008   61.4714 H       1  ZINC000918875053    0.1000
     39 H39       -11.0711   -0.0008   60.2410 H       1  ZINC000918875053    0.1000
     40 H40        -7.1841   -5.7005   56.5906 H       1  ZINC000918875053    0.1400
     41 H41        -6.0584   -4.5182   54.6486 H       1  ZINC000918875053    0.1100
     42 H42        -6.7145   -2.9035   55.2516 H       1  ZINC000918875053    0.1000
     43 H43        -5.4704   -3.2151   57.4401 H       1  ZINC000918875053    0.1000
     44 H44        -4.8144   -4.8299   56.8371 H       1  ZINC000918875053    0.1100
@<TRIPOS>BOND
     1     1     2    1
     2     1    29    1
     3     1    30    1
     4     1    31    1
     5     2     3    1
     6     2     4    1
     7     2    21    1
     8     4     5    1
     9     5     6    2
    10     5     7    1
    11     7     8    1
    12     7    20    1
    13     7     9    1
    14     9    10    1
    15     9    32    1
    16     9    33    1
    17    10    11    2
    18    10    12   am
    19    12    13    1
    20    12    20    1
    21    13    18   ar
    22    13    14   ar
    23    14    15   ar
    24    14    34    1
    25    15    16   ar
    26    15    35    1
    27    16    17   ar
    28    16    36    1
    29    17    18   ar
    30    17    37    1
    31    18    19    1
    32    20    38    1
    33    20    39    1
    34    21    28    1
    35    21    22    2
    36    22    23    1
    37    23    24    1
    38    23    27    2
    39    24    26    1
    40    24    25    1
    41    24    40    1
    42    25    26    1
    43    25    41    1
    44    25    42    1
    45    26    43    1
    46    26    44    1
    47    27    28    1
@<TRIPOS>SUBSTRUCTURE
     1 ZINC000918875053        1 TEMP              0 ****  ****    0 ROOT


##########                                Name:    ZINC000675319328
##########                DOCK_Rotatable_Bonds:                   7
##########                         Heavy_Atoms:                  26
##########                    Molecular_Weight:             363.475
##########                DOCK_Rotatable_Bonds:                   7
##########                       Formal_Charge:          -0.0200007
##########                     HBond_Acceptors:                   6
##########                        HBond_Donors:                   1
##########                         Heavy_Atoms:                  26
##########                          Grid_Score:          -32.031086
##########                     Grid_vdw_energy:          -28.009577
##########                      Grid_es_energy:           -4.021510
##########           Internal_energy_repulsive:           33.029392

@<TRIPOS>MOLECULE
ZINC000675319328
 56 58 1 0 0
SMALL
USER_CHARGES


@<TRIPOS>ATOM
      1 C1        -13.2097    3.7144   63.9904 C.3     1  ZINC000675319328   -0.1600
      2 C2        -12.3301    2.4798   64.1967 C.3     1  ZINC000675319328    0.1600
      3 H3        -12.9445    1.6502   64.5465 H       1  ZINC000675319328    0.0900
      4 C4        -11.2517    2.7897   65.2368 C.3     1  ZINC000675319328   -0.1200
      5 C5        -10.4662    4.0290   64.8034 C.3     1  ZINC000675319328   -0.1200
      6 H6        -11.1372    4.8702   64.6291 H       1  ZINC000675319328    0.0800
      7 C7         -9.3844    4.3939   65.8563 C.3     1  ZINC000675319328   -0.1500
      8 C8         -8.3312    5.0978   64.9641 C.3     1  ZINC000675319328    0.0500
      9 O9         -8.3491    4.3761   63.7222 O.3     1  ZINC000675319328   -0.3900
     10 C10        -9.6201    3.7315   63.5468 C.3     1  ZINC000675319328    0.0500
     11 N11       -11.6945    2.1155   62.9280 N.am    1  ZINC000675319328   -0.7400
     12 C12       -12.3315    1.2995   62.0649 C.2     1  ZINC000675319328    0.7000
     13 O13       -13.4337    0.8657   62.3393 O.2     1  ZINC000675319328   -0.5900
     14 N14       -11.7468    0.9643   60.8978 N.am    1  ZINC000675319328   -0.6200
     15 C15       -10.4083    1.5068   60.5928 C.3     1  ZINC000675319328    0.1300
     16 C16        -9.5024    0.4369   59.9605 C.3     1  ZINC000675319328   -0.1300
     17 C17        -9.7242   -0.8901   60.6524 C.3     1  ZINC000675319328    0.0700
     18 N18       -10.7497   -1.6408   59.9298 N.3     1  ZINC000675319328   -0.5500
     19 C19       -10.4611   -3.0810   59.9513 C.3     1  ZINC000675319328    0.1000
     20 C20        -9.4880   -3.4149   58.8501 C.ar    1  ZINC000675319328   -0.0900
     21 C21        -9.9461   -3.6176   57.5616 C.ar    1  ZINC000675319328   -0.0900
     22 C22        -9.0546   -3.9239   56.5510 C.ar    1  ZINC000675319328   -0.1500
     23 C23        -7.7023   -4.0272   56.8292 C.ar    1  ZINC000675319328    0.1000
     24 F24        -6.8299   -4.3261   55.8418 F       1  ZINC000675319328   -0.1400
     25 C25        -7.2445   -3.8234   58.1200 C.ar    1  ZINC000675319328   -0.1500
     26 C26        -8.1374   -3.5125   59.1281 C.ar    1  ZINC000675319328   -0.0700
     27 C27       -12.0911   -1.3870   60.2999 C.3     1  ZINC000675319328    0.0500
     28 C28       -12.4534    0.0806   59.9929 C.3     1  ZINC000675319328    0.1100
     29 H29       -13.9780    3.4936   63.2494 H       1  ZINC000675319328    0.0600
     30 H30       -13.6826    3.9855   64.9343 H       1  ZINC000675319328    0.0700
     31 H31       -12.5952    4.5440   63.6405 H       1  ZINC000675319328    0.0500
     32 H32       -11.7214    2.9766   66.2025 H       1  ZINC000675319328    0.0700
     33 H33       -10.5734    1.9406   65.3209 H       1  ZINC000675319328    0.0900
     34 H34        -9.7818    5.0762   66.6076 H       1  ZINC000675319328    0.0800
     35 H35        -8.9706    3.4988   66.3208 H       1  ZINC000675319328    0.0800
     36 H36        -8.6090    6.1390   64.8006 H       1  ZINC000675319328    0.0600
     37 H37        -7.3445    5.0362   65.4232 H       1  ZINC000675319328    0.0900
     38 H38        -9.4782    2.6555   63.4460 H       1  ZINC000675319328    0.0700
     39 H39       -10.1150    4.1253   62.6590 H       1  ZINC000675319328    0.0700
     40 H40       -10.8152    2.4616   62.7090 H       1  ZINC000675319328    0.3900
     41 H41       -10.5111    2.3421   59.9001 H       1  ZINC000675319328    0.0600
     42 H42        -9.9492    1.8636   61.5148 H       1  ZINC000675319328    0.0900
     43 H43        -9.7417    0.3384   58.9017 H       1  ZINC000675319328    0.0800
     44 H44        -8.4594    0.7334   60.0703 H       1  ZINC000675319328    0.0800
     45 H45        -8.7937   -1.4576   60.6589 H       1  ZINC000675319328    0.0700
     46 H46       -10.0537   -0.7163   61.6768 H       1  ZINC000675319328    0.0400
     47 H47       -10.0266   -3.3501   60.9141 H       1  ZINC000675319328    0.0900
     48 H48       -11.3853   -3.6390   59.8011 H       1  ZINC000675319328    0.0400
     49 H49       -11.0010   -3.5370   57.3448 H       1  ZINC000675319328    0.1300
     50 H50        -9.4128   -4.0829   55.5446 H       1  ZINC000675319328    0.1400
     51 H51        -6.1899   -3.9041   58.3383 H       1  ZINC000675319328    0.1400
     52 H52        -7.7806   -3.3532   60.1349 H       1  ZINC000675319328    0.1300
     53 H53       -12.7522   -2.0488   59.7402 H       1  ZINC000675319328    0.0900
     54 H54       -12.2136   -1.5736   61.3667 H       1  ZINC000675319328    0.0300
     55 H55       -13.5272    0.2224   60.1157 H       1  ZINC000675319328    0.0700
     56 H56       -12.1721    0.3167   58.9667 H       1  ZINC000675319328    0.0900
@<TRIPOS>BOND
     1     1     2    1
     2     1    29    1
     3     1    30    1
     4     1    31    1
     5     2     3    1
     6     2     4    1
     7     2    11    1
     8     4     5    1
     9     4    32    1
    10     4    33    1
    11     5     6    1
    12     5    10    1
    13     5     7    1
    14     7     8    1
    15     7    34    1
    16     7    35    1
    17     8     9    1
    18     8    36    1
    19     8    37    1
    20     9    10    1
    21    10    38    1
    22    10    39    1
    23    11    12   am
    24    11    40    1
    25    12    13    2
    26    12    14   am
    27    14    28    1
    28    14    15    1
    29    15    16    1
    30    15    41    1
    31    15    42    1
    32    16    17    1
    33    16    43    1
    34    16    44    1
    35    17    18    1
    36    17    45    1
    37    17    46    1
    38    18    19    1
    39    18    27    1
    40    19    20    1
    41    19    47    1
    42    19    48    1
    43    20    26   ar
    44    20    21   ar
    45    21    22   ar
    46    21    49    1
    47    22    23   ar
    48    22    50    1
    49    23    24    1
    50    23    25   ar
    51    25    26   ar
    52    25    51    1
    53    26    52    1
    54    27    28    1
    55    27    53    1
    56    27    54    1
    57    28    55    1
    58    28    56    1
@<TRIPOS>SUBSTRUCTURE
     1 ZINC000675319328        1 TEMP              0 ****  ****    0 ROOT


##########                                Name:    ZINC000046390957
##########                DOCK_Rotatable_Bonds:                   9
##########                         Heavy_Atoms:                  29
##########                    Molecular_Weight:             408.521
##########                DOCK_Rotatable_Bonds:                   9
##########                       Formal_Charge:           0.0100005
##########                     HBond_Acceptors:                   6
##########                        HBond_Donors:                   1
##########                         Heavy_Atoms:                  29
##########                          Grid_Score:          -32.012268
##########                     Grid_vdw_energy:          -30.354542
##########                      Grid_es_energy:           -1.657725
##########           Internal_energy_repulsive:           13.628667

@<TRIPOS>MOLECULE
ZINC000046390957
 53 55 1 0 0
SMALL
USER_CHARGES


@<TRIPOS>ATOM
      1 C1        -10.5867    5.7026   62.2003 C.3     1  ZINC000046390957   -0.1100
      2 C2        -10.0191    4.7810   63.2489 C.ar    1  ZINC000046390957   -0.0600
      3 C3         -9.0655    5.2448   64.1339 C.ar    1  ZINC000046390957   -0.1200
      4 C4         -8.5438    4.3997   65.0960 C.ar    1  ZINC000046390957   -0.1100
      5 C5         -8.9750    3.0883   65.1759 C.ar    1  ZINC000046390957   -0.1200
      6 C6         -9.9286    2.6184   64.2942 C.ar    1  ZINC000046390957   -0.0800
      7 C7        -10.3983    1.1892   64.3823 C.3     1  ZINC000046390957   -0.1100
      8 C8        -10.4583    3.4661   63.3301 C.ar    1  ZINC000046390957    0.1300
      9 N9        -11.4250    2.9934   62.4357 N.am    1  ZINC000046390957   -0.6800
     10 C10       -12.7335    3.0950   62.7420 C.2     1  ZINC000046390957    0.5200
     11 O11       -13.0733    3.5963   63.7929 O.2     1  ZINC000046390957   -0.4900
     12 C12       -13.7747    2.5859   61.7787 C.3     1  ZINC000046390957    0.0700
     13 H13       -14.4222    1.8718   62.2875 H       1  ZINC000046390957    0.1100
     14 C14       -14.6126    3.7591   61.2665 C.3     1  ZINC000046390957   -0.1700
     15 O15       -13.1202    1.9333   60.6589 O.3     1  ZINC000046390957   -0.3300
     16 C16       -13.2522    0.6007   60.5682 C.2     1  ZINC000046390957    0.4700
     17 O17       -13.5513   -0.0446   61.5450 O.2     1  ZINC000046390957   -0.4800
     18 C18       -13.0274   -0.0908   59.2482 C.3     1  ZINC000046390957   -0.0300
     19 C19       -11.7017   -0.8069   59.2756 C.2     1  ZINC000046390957    0.0800
     20 C20       -10.5978   -0.2645   59.7983 C.2     1  ZINC000046390957   -0.2500
     21 S21        -9.2870   -1.4291   59.6250 S.3     1  ZINC000046390957    0.1300
     22 C22       -10.3537   -2.5296   58.8667 C.2     1  ZINC000046390957    0.0600
     23 C23        -9.9687   -3.8975   58.3654 C.3     1  ZINC000046390957    0.0000
     24 C24        -8.6002   -3.8355   57.7373 C.ar    1  ZINC000046390957   -0.0900
     25 C25        -7.4736   -3.7958   58.5374 C.ar    1  ZINC000046390957   -0.0900
     26 C26        -6.2183   -3.7389   57.9613 C.ar    1  ZINC000046390957   -0.1200
     27 C27        -6.0896   -3.7220   56.5851 C.ar    1  ZINC000046390957   -0.1200
     28 C28        -7.2162   -3.7626   55.7849 C.ar    1  ZINC000046390957   -0.1200
     29 C29        -8.4712   -3.8239   56.3610 C.ar    1  ZINC000046390957   -0.1100
     30 N30       -11.5372   -2.0213   58.7911 N.2     1  ZINC000046390957   -0.4500
     31 H31       -11.3929    6.2939   62.6343 H       1  ZINC000046390957    0.0800
     32 H32        -9.8026    6.3676   61.8382 H       1  ZINC000046390957    0.0700
     33 H33       -10.9750    5.1128   61.3699 H       1  ZINC000046390957    0.0600
     34 H34        -8.7267    6.2686   64.0741 H       1  ZINC000046390957    0.1300
     35 H35        -7.7977    4.7646   65.7864 H       1  ZINC000046390957    0.1300
     36 H36        -8.5653    2.4306   65.9283 H       1  ZINC000046390957    0.1300
     37 H37       -11.2538    1.1287   65.0550 H       1  ZINC000046390957    0.0700
     38 H38       -10.6899    0.8409   63.3914 H       1  ZINC000046390957    0.0600
     39 H39        -9.5910    0.5643   64.7640 H       1  ZINC000046390957    0.0700
     40 H40       -11.1534    2.5925   61.5953 H       1  ZINC000046390957    0.4100
     41 H41       -15.1040    4.2491   62.1071 H       1  ZINC000046390957    0.0800
     42 H42       -13.9652    4.4733   60.7576 H       1  ZINC000046390957    0.0800
     43 H43       -15.3658    3.3909   60.5697 H       1  ZINC000046390957    0.0800
     44 H44       -13.8264   -0.8117   59.0750 H       1  ZINC000046390957    0.1200
     45 H45       -13.0248    0.6481   58.4469 H       1  ZINC000046390957    0.1300
     46 H46       -10.5225    0.7146   60.2477 H       1  ZINC000046390957    0.1800
     47 H47        -9.9543   -4.5994   59.1992 H       1  ZINC000046390957    0.1000
     48 H48       -10.6944   -4.2301   57.6232 H       1  ZINC000046390957    0.1000
     49 H49        -7.5743   -3.8091   59.6127 H       1  ZINC000046390957    0.1200
     50 H50        -5.3383   -3.7072   58.5864 H       1  ZINC000046390957    0.1200
     51 H51        -5.1089   -3.6768   56.1350 H       1  ZINC000046390957    0.1200
     52 H52        -7.1156   -3.7491   54.7097 H       1  ZINC000046390957    0.1200
     53 H53        -9.3513   -3.8556   55.7358 H       1  ZINC000046390957    0.1200
@<TRIPOS>BOND
     1     1     2    1
     2     1    31    1
     3     1    32    1
     4     1    33    1
     5     2     8   ar
     6     2     3   ar
     7     3     4   ar
     8     3    34    1
     9     4     5   ar
    10     4    35    1
    11     5     6   ar
    12     5    36    1
    13     6     7    1
    14     6     8   ar
    15     7    37    1
    16     7    38    1
    17     7    39    1
    18     8     9    1
    19     9    10   am
    20     9    40    1
    21    10    11    2
    22    10    12    1
    23    12    13    1
    24    12    14    1
    25    12    15    1
    26    14    41    1
    27    14    42    1
    28    14    43    1
    29    15    16    1
    30    16    17    2
    31    16    18    1
    32    18    19    1
    33    18    44    1
    34    18    45    1
    35    19    30    1
    36    19    20    2
    37    20    21    1
    38    20    46    1
    39    21    22    1
    40    22    23    1
    41    22    30    2
    42    23    24    1
    43    23    47    1
    44    23    48    1
    45    24    29   ar
    46    24    25   ar
    47    25    26   ar
    48    25    49    1
    49    26    27   ar
    50    26    50    1
    51    27    28   ar
    52    27    51    1
    53    28    29   ar
    54    28    52    1
    55    29    53    1
@<TRIPOS>SUBSTRUCTURE
     1 ZINC000046390957        1 TEMP              0 ****  ****    0 ROOT


##########                                Name:    ZINC000951315041
##########                DOCK_Rotatable_Bonds:                   5
##########                         Heavy_Atoms:                  25
##########                    Molecular_Weight:             340.382
##########                DOCK_Rotatable_Bonds:                   5
##########                       Formal_Charge:          0.00999974
##########                     HBond_Acceptors:                   7
##########                        HBond_Donors:                   1
##########                         Heavy_Atoms:                  25
##########                          Grid_Score:          -32.000862
##########                     Grid_vdw_energy:          -29.762346
##########                      Grid_es_energy:           -2.238514
##########           Internal_energy_repulsive:           11.302527

@<TRIPOS>MOLECULE
ZINC000951315041
 45 47 1 0 0
SMALL
USER_CHARGES


@<TRIPOS>ATOM
      1 C1        -11.4056    4.7549   60.5744 C.3     1  ZINC000951315041    0.0500
      2 N2        -11.4750    3.3474   60.9745 N.am    1  ZINC000951315041   -0.4900
      3 C3        -12.5812    2.6332   60.6954 C.2     1  ZINC000951315041    0.1700
      4 C4        -12.6684    1.3061   61.0634 C.2     1  ZINC000951315041   -0.2400
      5 C5        -13.8824    0.5278   60.7554 C.2     1  ZINC000951315041    0.5800
      6 O6        -14.9192    0.7588   61.3474 O.2     1  ZINC000951315041   -0.5200
      7 N7        -13.8430   -0.4394   59.8177 N.am    1  ZINC000951315041   -0.6000
      8 C8        -15.0444   -1.2232   59.4998 C.3     1  ZINC000951315041    0.1100
      9 C9        -14.7085   -2.7127   59.6243 C.3     1  ZINC000951315041   -0.1300
     10 C10       -13.4977   -3.0337   58.7451 C.3     1  ZINC000951315041   -0.1300
     11 C11       -12.2896   -2.2246   59.2226 C.3     1  ZINC000951315041    0.1300
     12 H12       -12.0802   -2.4643   60.2651 H       1  ZINC000951315041    0.1000
     13 N13       -11.1231   -2.5566   58.4009 N.am    1  ZINC000951315041   -0.7200
     14 C14       -10.0751   -3.2035   58.9485 C.2     1  ZINC000951315041    0.5700
     15 O15       -10.0973   -3.5102   60.1245 O.2     1  ZINC000951315041   -0.5200
     16 C16        -8.8987   -3.5402   58.1188 C.ar    1  ZINC000951315041   -0.1900
     17 C17        -7.6155   -3.5599   58.6780 C.ar    1  ZINC000951315041   -0.0100
     18 C18        -6.5478   -3.8818   57.8584 C.ar    1  ZINC000951315041   -0.1800
     19 C19        -6.7802   -4.1710   56.5260 C.ar    1  ZINC000951315041    0.1300
     20 N20        -8.0011   -4.1442   56.0261 N.ar    1  ZINC000951315041   -0.4900
     21 C21        -9.0493   -3.8495   56.7663 C.ar    1  ZINC000951315041    0.1400
     22 C22       -12.5995   -0.7258   59.0895 C.3     1  ZINC000951315041    0.1000
     23 C23       -11.5829    0.6972   61.7386 C.2     1  ZINC000951315041    0.0100
     24 C24       -10.4755    1.4385   62.0094 C.2     1  ZINC000951315041   -0.2300
     25 C25       -10.4298    2.7875   61.6103 C.2     1  ZINC000951315041    0.5100
     26 O26        -9.4387    3.4564   61.8506 O.2     1  ZINC000951315041   -0.5400
     27 H27       -10.4437    5.1709   60.8743 H       1  ZINC000951315041    0.1100
     28 H28       -11.5126    4.8307   59.4922 H       1  ZINC000951315041    0.0800
     29 H29       -12.2086    5.3103   61.0588 H       1  ZINC000951315041    0.0800
     30 H30       -13.4064    3.1022   60.1802 H       1  ZINC000951315041    0.1700
     31 H31       -15.8419   -0.9689   60.1977 H       1  ZINC000951315041    0.1000
     32 H32       -15.3642   -1.0047   58.4809 H       1  ZINC000951315041    0.0700
     33 H33       -14.4765   -2.9477   60.6630 H       1  ZINC000951315041    0.0700
     34 H34       -15.5624   -3.3067   59.2985 H       1  ZINC000951315041    0.0900
     35 H35       -13.2717   -4.0979   58.8129 H       1  ZINC000951315041    0.0800
     36 H36       -13.7217   -2.7754   57.7101 H       1  ZINC000951315041    0.0700
     37 H37       -11.1048   -2.3109   57.4627 H       1  ZINC000951315041    0.4000
     38 H38        -7.4627   -3.3295   59.7220 H       1  ZINC000951315041    0.1500
     39 H39        -5.5436   -3.9065   58.2551 H       1  ZINC000951315041    0.1500
     40 H40        -5.9488   -4.4224   55.8842 H       1  ZINC000951315041    0.1600
     41 H41       -10.0332   -3.8381   56.3208 H       1  ZINC000951315041    0.1600
     42 H42       -12.7187   -0.4694   58.0368 H       1  ZINC000951315041    0.0700
     43 H43       -11.7837   -0.1445   59.5192 H       1  ZINC000951315041    0.0900
     44 H44       -11.6338   -0.3402   62.0345 H       1  ZINC000951315041    0.1400
     45 H45        -9.6361    0.9944   62.5239 H       1  ZINC000951315041    0.1600
@<TRIPOS>BOND
     1     1     2    1
     2     1    27    1
     3     1    28    1
     4     1    29    1
     5     2    25   am
     6     2     3    1
     7     3     4    2
     8     3    30    1
     9     4     5    1
    10     4    23    1
    11     5     6    2
    12     5     7   am
    13     7    22    1
    14     7     8    1
    15     8     9    1
    16     8    31    1
    17     8    32    1
    18     9    10    1
    19     9    33    1
    20     9    34    1
    21    10    11    1
    22    10    35    1
    23    10    36    1
    24    11    12    1
    25    11    13    1
    26    11    22    1
    27    13    14   am
    28    13    37    1
    29    14    15    2
    30    14    16    1
    31    16    21   ar
    32    16    17   ar
    33    17    18   ar
    34    17    38    1
    35    18    19   ar
    36    18    39    1
    37    19    20   ar
    38    19    40    1
    39    20    21   ar
    40    21    41    1
    41    22    42    1
    42    22    43    1
    43    23    24    2
    44    23    44    1
    45    24    25    1
    46    24    45    1
    47    25    26    2
@<TRIPOS>SUBSTRUCTURE
     1 ZINC000951315041        1 TEMP              0 ****  ****    0 ROOT


##########                                Name:    ZINC000560467340
##########                DOCK_Rotatable_Bonds:                   7
##########                         Heavy_Atoms:                  24
##########                    Molecular_Weight:             369.481
##########                DOCK_Rotatable_Bonds:                   7
##########                       Formal_Charge:          -0.0199997
##########                     HBond_Acceptors:                   7
##########                        HBond_Donors:                   2
##########                         Heavy_Atoms:                  24
##########                          Grid_Score:          -31.996782
##########                     Grid_vdw_energy:          -31.467533
##########                      Grid_es_energy:           -0.529249
##########           Internal_energy_repulsive:           28.077122

@<TRIPOS>MOLECULE
ZINC000560467340
 44 46 1 0 0
SMALL
USER_CHARGES


@<TRIPOS>ATOM
      1 O1        -10.1483   -3.4981   60.6767 O.2     1  ZINC000560467340   -0.9600
      2 S2        -10.4765   -2.9623   59.4021 S.o2    1  ZINC000560467340    2.7100
      3 O3        -11.6721   -3.2877   58.7066 O.2     1  ZINC000560467340   -0.9500
      4 N4        -10.4673   -1.3149   59.5710 N.am    1  ZINC000560467340   -1.0900
      5 C5        -11.4689   -0.6595   60.4156 C.3     1  ZINC000560467340    0.1400
      6 C6        -11.2977    0.8582   60.3256 C.3     1  ZINC000560467340   -0.0500
      7 C7         -9.8343    1.2353   60.5643 C.3     1  ZINC000560467340   -0.0700
      8 C8         -9.4313    0.8269   61.9579 C.ar    1  ZINC000560467340   -0.0900
      9 C9         -9.4501    1.7549   62.9823 C.ar    1  ZINC000560467340   -0.0900
     10 C10        -9.0807    1.3815   64.2606 C.ar    1  ZINC000560467340   -0.1500
     11 C11        -8.6920    0.0771   64.5150 C.ar    1  ZINC000560467340    0.1000
     12 F12        -8.3311   -0.2891   65.7643 F       1  ZINC000560467340   -0.1400
     13 C13        -8.6740   -0.8516   63.4884 C.ar    1  ZINC000560467340   -0.1500
     14 C14        -9.0484   -0.4770   62.2118 C.ar    1  ZINC000560467340   -0.0900
     15 C15       -12.2003    1.5543   61.3651 C.3     1  ZINC000560467340   -0.1300
     16 C16       -12.6946    2.8326   60.6436 C.3     1  ZINC000560467340   -0.1200
     17 C17       -12.9152    2.3417   59.1912 C.3     1  ZINC000560467340   -0.1600
     18 C18       -11.7524    1.3588   58.9434 C.3     1  ZINC000560467340    0.1100
     19 H19       -10.9306    1.8712   58.4431 H       1  ZINC000560467340    0.0600
     20 O20       -12.2011    0.2604   58.1471 O.3     1  ZINC000560467340   -0.5500
     21 C21        -9.1452   -3.3838   58.3276 C.2     1  ZINC000560467340   -0.6900
     22 C22        -9.3330   -3.7215   57.0509 C.2     1  ZINC000560467340   -0.1000
     23 S23        -7.7822   -4.0735   56.2995 S.3     1  ZINC000560467340    0.1500
     24 C24        -6.9411   -3.7321   57.8061 C.2     1  ZINC000560467340   -0.2200
     25 C25        -7.8247   -3.3841   58.7427 C.2     1  ZINC000560467340   -0.0700
     26 H26        -9.7986   -0.7840   59.1108 H       1  ZINC000560467340    0.4200
     27 H27       -12.4673   -0.9334   60.0744 H       1  ZINC000560467340    0.0600
     28 H28       -11.3379   -0.9793   61.4494 H       1  ZINC000560467340    0.0800
     29 H29        -9.2037    0.7218   59.8385 H       1  ZINC000560467340    0.0800
     30 H30        -9.7139    2.3128   60.4525 H       1  ZINC000560467340    0.0800
     31 H31        -9.7533    2.7722   62.7835 H       1  ZINC000560467340    0.1300
     32 H32        -9.0948    2.1069   65.0606 H       1  ZINC000560467340    0.1400
     33 H33        -8.3706   -1.8692   63.6856 H       1  ZINC000560467340    0.1400
     34 H34        -9.0347   -1.2014   61.4108 H       1  ZINC000560467340    0.1300
     35 H35       -13.0429    0.9147   61.6281 H       1  ZINC000560467340    0.0700
     36 H36       -11.6266    1.8158   62.2543 H       1  ZINC000560467340    0.0800
     37 H37       -13.6300    3.1846   61.0787 H       1  ZINC000560467340    0.0700
     38 H38       -11.9345    3.6131   60.6763 H       1  ZINC000560467340    0.0700
     39 H39       -13.8732    1.8293   59.1031 H       1  ZINC000560467340    0.0800
     40 H40       -12.8632    3.1779   58.4939 H       1  ZINC000560467340    0.0700
     41 H41       -12.5110    0.5135   57.2668 H       1  ZINC000560467340    0.3800
     42 H42       -10.2909   -3.7715   56.5546 H       1  ZINC000560467340    0.1800
     43 H43        -5.8723   -3.7909   57.9494 H       1  ZINC000560467340    0.1700
     44 H44        -7.5326   -3.1294   59.7508 H       1  ZINC000560467340    0.1500
@<TRIPOS>BOND
     1     1     2    2
     2     2     3    2
     3     2     4   am
     4     2    21    1
     5     4     5    1
     6     4    26    1
     7     5     6    1
     8     5    27    1
     9     5    28    1
    10     6    18    1
    11     6     7    1
    12     6    15    1
    13     7     8    1
    14     7    29    1
    15     7    30    1
    16     8    14   ar
    17     8     9   ar
    18     9    10   ar
    19     9    31    1
    20    10    11   ar
    21    10    32    1
    22    11    12    1
    23    11    13   ar
    24    13    14   ar
    25    13    33    1
    26    14    34    1
    27    15    16    1
    28    15    35    1
    29    15    36    1
    30    16    17    1
    31    16    37    1
    32    16    38    1
    33    17    18    1
    34    17    39    1
    35    17    40    1
    36    18    19    1
    37    18    20    1
    38    20    41    1
    39    21    25    1
    40    21    22    2
    41    22    23    1
    42    22    42    1
    43    23    24    1
    44    24    25    2
    45    24    43    1
    46    25    44    1
@<TRIPOS>SUBSTRUCTURE
     1 ZINC000560467340        1 TEMP              0 ****  ****    0 ROOT


##########                                Name:    ZINC000033150761
##########                DOCK_Rotatable_Bonds:                   7
##########                         Heavy_Atoms:                  29
##########                    Molecular_Weight:             413.407
##########                DOCK_Rotatable_Bonds:                   7
##########                       Formal_Charge:          0.00999993
##########                     HBond_Acceptors:                  10
##########                        HBond_Donors:                   1
##########                         Heavy_Atoms:                  29
##########                          Grid_Score:          -31.951710
##########                     Grid_vdw_energy:          -30.047428
##########                      Grid_es_energy:           -1.904281
##########           Internal_energy_repulsive:            7.054063

@<TRIPOS>MOLECULE
ZINC000033150761
 42 45 1 0 0
SMALL
USER_CHARGES


@<TRIPOS>ATOM
      1 O1        -13.6844   -3.0306   60.4697 O.2     1  ZINC000033150761   -0.5000
      2 C2        -13.9067   -2.6378   59.3439 C.2     1  ZINC000033150761    0.5200
      3 C3        -15.2548   -2.8781   58.7145 C.3     1  ZINC000033150761   -0.1300
      4 C4        -15.0665   -3.3738   57.2793 C.3     1  ZINC000033150761   -0.0100
      5 C5        -15.0736   -2.1981   56.3367 C.2     1  ZINC000033150761    0.1800
      6 N6        -14.4352   -2.1112   55.1965 N.2     1  ZINC000033150761   -0.4400
      7 C7        -14.7346   -0.8878   54.7049 C.2     1  ZINC000033150761    0.2200
      8 C8        -14.2516   -0.3096   53.4254 C.ar    1  ZINC000033150761    0.1900
      9 C9        -14.6483    0.9720   53.0539 C.ar    1  ZINC000033150761   -0.1300
     10 C10       -14.1897    1.4982   51.8575 C.ar    1  ZINC000033150761   -0.0700
     11 C11       -13.3491    0.7231   51.0727 C.ar    1  ZINC000033150761   -0.1500
     12 C12       -12.9952   -0.5431   51.5038 C.ar    1  ZINC000033150761    0.1100
     13 N13       -13.4416   -1.0167   52.6487 N.ar    1  ZINC000033150761   -0.4500
     14 N14       -15.5291   -0.3092   55.5668 N.2     1  ZINC000033150761   -0.3600
     15 O15       -15.7372   -1.0499   56.5045 O.3     1  ZINC000033150761    0.0900
     16 N16       -12.9501   -1.9815   58.6579 N.am    1  ZINC000033150761   -0.6200
     17 C17       -11.7072   -1.7599   59.2383 C.2     1  ZINC000033150761    0.2700
     18 N18       -11.4927   -1.0509   60.3024 N.2     1  ZINC000033150761   -0.5000
     19 C19       -10.2369   -0.9484   60.7145 C.2     1  ZINC000033150761    0.1200
     20 C20        -9.8585   -0.1675   61.9175 C.ar    1  ZINC000033150761    0.0000
     21 C21       -10.4203    1.0881   62.1406 C.ar    1  ZINC000033150761   -0.0800
     22 C22       -10.0663    1.8120   63.2613 C.ar    1  ZINC000033150761   -0.1200
     23 C23        -9.1541    1.2931   64.1643 C.ar    1  ZINC000033150761    0.0700
     24 F24        -8.8108    2.0053   65.2597 F       1  ZINC000033150761   -0.1300
     25 C25        -8.5917    0.0430   63.9475 C.ar    1  ZINC000033150761    0.0700
     26 F26        -7.7024   -0.4596   64.8317 F       1  ZINC000033150761   -0.1300
     27 C27        -8.9443   -0.6901   62.8309 C.ar    1  ZINC000033150761   -0.1000
     28 C28        -9.3297   -1.6017   59.9667 C.2     1  ZINC000033150761   -0.2800
     29 S29       -10.1785   -2.4045   58.6475 S.3     1  ZINC000033150761    0.2200
     30 H30       -15.7959   -3.6291   59.2902 H       1  ZINC000033150761    0.1200
     31 H31       -15.8228   -1.9479   58.7060 H       1  ZINC000033150761    0.1200
     32 H32       -14.1147   -3.8989   57.1983 H       1  ZINC000033150761    0.1300
     33 H33       -15.8789   -4.0525   57.0199 H       1  ZINC000033150761    0.1200
     34 H34       -15.3046    1.5478   53.6895 H       1  ZINC000033150761    0.1400
     35 H35       -14.4806    2.4895   51.5427 H       1  ZINC000033150761    0.1500
     36 H36       -12.9744    1.1041   50.1341 H       1  ZINC000033150761    0.1400
     37 H37       -12.3408   -1.1496   50.8954 H       1  ZINC000033150761    0.1700
     38 H38       -13.1293   -1.6639   57.7590 H       1  ZINC000033150761    0.4300
     39 H39       -11.1317    1.4946   61.4371 H       1  ZINC000033150761    0.1400
     40 H40       -10.5014    2.7853   63.4339 H       1  ZINC000033150761    0.1500
     41 H41        -8.5068   -1.6630   62.6620 H       1  ZINC000033150761    0.1600
     42 H42        -8.2652   -1.6326   60.1465 H       1  ZINC000033150761    0.1800
@<TRIPOS>BOND
     1     1     2    2
     2     2     3    1
     3     2    16   am
     4     3     4    1
     5     3    30    1
     6     3    31    1
     7     4     5    1
     8     4    32    1
     9     4    33    1
    10     5    15    1
    11     5     6    2
    12     6     7    1
    13     7     8    1
    14     7    14    2
    15     8    13   ar
    16     8     9   ar
    17     9    10   ar
    18     9    34    1
    19    10    11   ar
    20    10    35    1
    21    11    12   ar
    22    11    36    1
    23    12    13   ar
    24    12    37    1
    25    14    15    1
    26    16    17    1
    27    16    38    1
    28    17    29    1
    29    17    18    2
    30    18    19    1
    31    19    20    1
    32    19    28    2
    33    20    27   ar
    34    20    21   ar
    35    21    22   ar
    36    21    39    1
    37    22    23   ar
    38    22    40    1
    39    23    24    1
    40    23    25   ar
    41    25    26    1
    42    25    27   ar
    43    27    41    1
    44    28    29    1
    45    28    42    1
@<TRIPOS>SUBSTRUCTURE
     1 ZINC000033150761        1 TEMP              0 ****  ****    0 ROOT


##########                                Name:    ZINC000563265674
##########                DOCK_Rotatable_Bonds:                   7
##########                         Heavy_Atoms:                  25
##########                    Molecular_Weight:             386.859
##########                DOCK_Rotatable_Bonds:                   7
##########                       Formal_Charge:          0.00999963
##########                     HBond_Acceptors:                  10
##########                        HBond_Donors:                   2
##########                         Heavy_Atoms:                  25
##########                          Grid_Score:          -31.944672
##########                     Grid_vdw_energy:          -33.351292
##########                      Grid_es_energy:            1.406620
##########           Internal_energy_repulsive:           15.415271

@<TRIPOS>MOLECULE
ZINC000563265674
 44 45 1 0 0
SMALL
USER_CHARGES


@<TRIPOS>ATOM
      1 C1         -6.2237    1.4733   66.6130 C.3     1  ZINC000563265674   -0.0600
      2 C2         -7.4019    1.1630   65.7260 C.2     1  ZINC000563265674    0.1700
      3 N3         -7.8655   -0.0188   65.4487 N.2     1  ZINC000563265674   -0.3800
      4 O4         -8.8214    0.0686   64.7071 O.3     1  ZINC000563265674    0.0900
      5 C5         -9.0657    1.3535   64.4325 C.2     1  ZINC000563265674    0.1900
      6 C6        -10.1640    1.8897   63.5509 C.3     1  ZINC000563265674    0.2100
      7 C7        -11.4144    2.1478   64.3940 C.3     1  ZINC000563265674   -0.1400
      8 C8         -9.7058    3.1984   62.9042 C.3     1  ZINC000563265674   -0.1800
      9 N9        -10.4741    0.9080   62.5030 N.3     1  ZINC000563265674   -0.6600
     10 C10       -11.8418    1.0903   61.9989 C.3     1  ZINC000563265674    0.0400
     11 C11       -12.0561    0.2071   60.7969 C.2     1  ZINC000563265674    0.5200
     12 O12       -12.6545    0.6317   59.8312 O.2     1  ZINC000563265674   -0.4900
     13 N13       -11.5827   -1.0548   60.7950 N.am    1  ZINC000563265674   -0.6700
     14 C14       -11.7818   -1.8754   59.6784 C.ar    1  ZINC000563265674    0.1400
     15 C15       -13.0696   -2.1656   59.2492 C.ar    1  ZINC000563265674   -0.0300
     16 C16       -13.2629   -2.9754   58.1467 C.ar    1  ZINC000563265674   -0.6400
     17 S17       -14.8973   -3.3437   57.6013 S.o2    1  ZINC000563265674    2.5000
     18 C18       -15.4497   -1.8282   56.7712 C.3     1  ZINC000563265674   -0.6500
     19 O19       -14.7244   -4.3935   56.6594 O.2     1  ZINC000563265674   -0.9300
     20 O20       -15.6292   -3.5496   58.8017 O.2     1  ZINC000563265674   -0.9300
     21 C21       -12.1756   -3.4969   57.4704 C.ar    1  ZINC000563265674   -0.0300
     22 C22       -10.8909   -3.2105   57.8950 C.ar    1  ZINC000563265674   -0.1100
     23 C23       -10.6903   -2.3967   58.9937 C.ar    1  ZINC000563265674   -0.0200
     24 Cl24       -9.0776   -2.0369   59.5260 Cl      1  ZINC000563265674   -0.0500
     25 N25        -8.1701    2.0587   65.0807 N.2     1  ZINC000563265674   -0.4700
     26 H26        -6.5653    1.5977   67.6406 H       1  ZINC000563265674    0.0900
     27 H27        -5.5070    0.6535   66.5651 H       1  ZINC000563265674    0.0900
     28 H28        -5.7466    2.3932   66.2748 H       1  ZINC000563265674    0.0900
     29 H29       -11.1843    2.8763   65.1715 H       1  ZINC000563265674    0.0800
     30 H30       -12.2088    2.5357   63.7563 H       1  ZINC000563265674    0.0800
     31 H31       -11.7408    1.2156   64.8547 H       1  ZINC000563265674    0.0700
     32 H32        -8.8150    3.0145   62.3036 H       1  ZINC000563265674    0.0700
     33 H33       -10.5002    3.5863   62.2666 H       1  ZINC000563265674    0.0800
     34 H34        -9.4757    3.9268   63.6818 H       1  ZINC000563265674    0.0800
     35 H35        -9.8023    0.9567   61.7516 H       1  ZINC000563265674    0.3600
     36 H36       -12.5550    0.8224   62.7784 H       1  ZINC000563265674    0.1200
     37 H37       -11.9884    2.1324   61.7149 H       1  ZINC000563265674    0.0800
     38 H38       -11.1041   -1.3945   61.5673 H       1  ZINC000563265674    0.4200
     39 H39       -13.9196   -1.7591   59.7770 H       1  ZINC000563265674    0.1700
     40 H40       -14.7829   -1.6068   55.9379 H       1  ZINC000563265674    0.1300
     41 H41       -16.4641   -1.9677   56.3976 H       1  ZINC000563265674    0.1400
     42 H42       -15.4339   -0.9997   57.4792 H       1  ZINC000563265674    0.1400
     43 H43       -12.3298   -4.1296   56.6089 H       1  ZINC000563265674    0.1500
     44 H44       -10.0436   -3.6197   57.3648 H       1  ZINC000563265674    0.1500
@<TRIPOS>BOND
     1     1     2    1
     2     1    26    1
     3     1    27    1
     4     1    28    1
     5     2    25    1
     6     2     3    2
     7     3     4    1
     8     4     5    1
     9     5     6    1
    10     5    25    2
    11     6     7    1
    12     6     8    1
    13     6     9    1
    14     7    29    1
    15     7    30    1
    16     7    31    1
    17     8    32    1
    18     8    33    1
    19     8    34    1
    20     9    10    1
    21     9    35    1
    22    10    11    1
    23    10    36    1
    24    10    37    1
    25    11    12    2
    26    11    13   am
    27    13    14    1
    28    13    38    1
    29    14    23   ar
    30    14    15   ar
    31    15    16   ar
    32    15    39    1
    33    16    17    1
    34    16    21   ar
    35    17    18    1
    36    17    19    2
    37    17    20    2
    38    18    40    1
    39    18    41    1
    40    18    42    1
    41    21    22   ar
    42    21    43    1
    43    22    23   ar
    44    22    44    1
    45    23    24    1
@<TRIPOS>SUBSTRUCTURE
     1 ZINC000563265674        1 TEMP              0 ****  ****    0 ROOT


##########                                Name:    ZINC001015666108
##########                DOCK_Rotatable_Bonds:                   7
##########                         Heavy_Atoms:                  25
##########                    Molecular_Weight:             346.429
##########                DOCK_Rotatable_Bonds:                   7
##########                       Formal_Charge:          -0.0199997
##########                     HBond_Acceptors:                   7
##########                        HBond_Donors:                   1
##########                         Heavy_Atoms:                  25
##########                          Grid_Score:          -31.930349
##########                     Grid_vdw_energy:          -29.523872
##########                      Grid_es_energy:           -2.406477
##########           Internal_energy_repulsive:           36.918568

@<TRIPOS>MOLECULE
ZINC001015666108
 51 53 1 0 0
SMALL
USER_CHARGES


@<TRIPOS>ATOM
      1 C1        -10.2915    3.1633   65.3951 C.3     1  ZINC001015666108   -0.1400
      2 C2        -11.0797    2.0045   64.7810 C.3     1  ZINC001015666108   -0.0700
      3 C3        -10.1321    1.0748   64.0677 C.2     1  ZINC001015666108   -0.0700
      4 C4        -10.4116    0.3095   62.9720 C.2     1  ZINC001015666108   -0.0900
      5 C5        -11.6990    0.2436   62.2725 C.2     1  ZINC001015666108    0.6100
      6 O6        -12.6325    0.9269   62.6505 O.2     1  ZINC001015666108   -0.5100
      7 N7        -11.8481   -0.5734   61.2111 N.am    1  ZINC001015666108   -0.7200
      8 C8        -13.1346   -0.6405   60.5134 C.3     1  ZINC001015666108    0.1400
      9 H9        -13.9554   -0.5511   61.2251 H       1  ZINC001015666108    0.1100
     10 C10       -13.2254    0.4749   59.4468 C.3     1  ZINC001015666108   -0.1300
     11 C11       -12.8134   -0.2566   58.1446 C.3     1  ZINC001015666108    0.0300
     12 N12       -13.4239   -1.6014   58.3025 N.3     1  ZINC001015666108   -0.5100
     13 C13       -12.7685   -2.5830   57.4279 C.3     1  ZINC001015666108    0.1700
     14 H14       -13.2764   -3.5435   57.5152 H       1  ZINC001015666108    0.0900
     15 C15       -12.8369   -2.0999   55.9778 C.3     1  ZINC001015666108   -0.1500
     16 C16       -11.3268   -2.7380   57.8384 C.2     1  ZINC001015666108    0.1900
     17 N17       -10.4865   -3.6488   57.4100 N.2     1  ZINC001015666108   -0.4800
     18 C18        -9.3273   -3.3991   58.0447 C.2     1  ZINC001015666108    0.1800
     19 C19        -8.0428   -4.1723   57.8930 C.3     1  ZINC001015666108    0.0000
     20 C20        -7.6713   -4.2586   56.4113 C.3     1  ZINC001015666108   -0.1500
     21 C21        -6.9255   -3.4605   58.6583 C.3     1  ZINC001015666108   -0.1500
     22 N22        -9.5183   -2.3683   58.8125 N.2     1  ZINC001015666108   -0.3800
     23 O23       -10.6589   -1.9698   58.7043 O.3     1  ZINC001015666108    0.1000
     24 C24       -13.2489   -1.9606   59.7288 C.3     1  ZINC001015666108    0.0300
     25 O25        -9.2961   -0.3754   62.6455 O.3     1  ZINC001015666108   -0.1700
     26 C26        -8.3166   -0.0652   63.5047 C.2     1  ZINC001015666108    0.0000
     27 C27        -8.7895    0.8323   64.3974 C.2     1  ZINC001015666108   -0.2200
     28 H28       -10.9769    3.8358   65.9110 H       1  ZINC001015666108    0.0600
     29 H29        -9.5635    2.7714   66.1053 H       1  ZINC001015666108    0.0600
     30 H30        -9.7728    3.7082   64.6063 H       1  ZINC001015666108    0.0500
     31 H31       -11.5985    1.4597   65.5697 H       1  ZINC001015666108    0.0900
     32 H32       -11.8077    2.3964   64.0707 H       1  ZINC001015666108    0.0700
     33 H33       -11.1037   -1.1170   60.9090 H       1  ZINC001015666108    0.4000
     34 H34       -14.2447    0.8536   59.3705 H       1  ZINC001015666108    0.0900
     35 H35       -12.5288    1.2822   59.6727 H       1  ZINC001015666108    0.0800
     36 H36       -13.2230    0.2518   57.2718 H       1  ZINC001015666108    0.0800
     37 H37       -11.7285   -0.3326   58.0729 H       1  ZINC001015666108    0.0500
     38 H38       -12.3290   -1.1394   55.8905 H       1  ZINC001015666108    0.0800
     39 H39       -12.3506   -2.8283   55.3289 H       1  ZINC001015666108    0.0700
     40 H40       -13.8796   -1.9879   55.6809 H       1  ZINC001015666108    0.0800
     41 H41        -8.1743   -5.1775   58.2936 H       1  ZINC001015666108    0.1000
     42 H42        -7.5399   -3.2534   56.0106 H       1  ZINC001015666108    0.0600
     43 H43        -6.7423   -4.8178   56.3015 H       1  ZINC001015666108    0.0700
     44 H44        -8.4673   -4.7657   55.8660 H       1  ZINC001015666108    0.0600
     45 H45        -6.7940   -2.4553   58.2577 H       1  ZINC001015666108    0.0600
     46 H46        -7.1901   -3.3991   59.7139 H       1  ZINC001015666108    0.0600
     47 H47        -5.9964   -4.0198   58.5485 H       1  ZINC001015666108    0.0700
     48 H48       -12.3390   -2.5474   59.8550 H       1  ZINC001015666108    0.0600
     49 H49       -14.1115   -2.5287   60.0771 H       1  ZINC001015666108    0.1000
     50 H50        -7.3129   -0.4636   63.4847 H       1  ZINC001015666108    0.2100
     51 H51        -8.2396    1.2749   65.2148 H       1  ZINC001015666108    0.1600
@<TRIPOS>BOND
     1     1     2    1
     2     1    28    1
     3     1    29    1
     4     1    30    1
     5     2     3    1
     6     2    31    1
     7     2    32    1
     8     3    27    1
     9     3     4    2
    10     4     5    1
    11     4    25    1
    12     5     6    2
    13     5     7   am
    14     7     8    1
    15     7    33    1
    16     8     9    1
    17     8    24    1
    18     8    10    1
    19    10    11    1
    20    10    34    1
    21    10    35    1
    22    11    12    1
    23    11    36    1
    24    11    37    1
    25    12    13    1
    26    12    24    1
    27    13    14    1
    28    13    15    1
    29    13    16    1
    30    15    38    1
    31    15    39    1
    32    15    40    1
    33    16    23    1
    34    16    17    2
    35    17    18    1
    36    18    19    1
    37    18    22    2
    38    19    20    1
    39    19    21    1
    40    19    41    1
    41    20    42    1
    42    20    43    1
    43    20    44    1
    44    21    45    1
    45    21    46    1
    46    21    47    1
    47    22    23    1
    48    24    48    1
    49    24    49    1
    50    25    26    1
    51    26    27    2
    52    26    50    1
    53    27    51    1
@<TRIPOS>SUBSTRUCTURE
     1 ZINC001015666108        1 TEMP              0 ****  ****    0 ROOT


##########                                Name:    ZINC000058043838
##########                DOCK_Rotatable_Bonds:                   8
##########                         Heavy_Atoms:                  29
##########                    Molecular_Weight:             412.469
##########                DOCK_Rotatable_Bonds:                   8
##########                       Formal_Charge:           0.0200001
##########                     HBond_Acceptors:                   9
##########                        HBond_Donors:                   0
##########                         Heavy_Atoms:                  29
##########                          Grid_Score:          -31.927256
##########                     Grid_vdw_energy:          -31.218851
##########                      Grid_es_energy:           -0.708404
##########           Internal_energy_repulsive:           13.064143

@<TRIPOS>MOLECULE
ZINC000058043838
 49 51 1 0 0
SMALL
USER_CHARGES


@<TRIPOS>ATOM
      1 C1        -13.3561   -2.6968   56.6691 C.3     1  ZINC000058043838    0.0300
      2 O2        -13.0919   -2.8608   58.0639 O.3     1  ZINC000058043838   -0.3800
      3 C3        -14.2584   -2.8026   58.8873 C.3     1  ZINC000058043838    0.0300
      4 C4        -13.8578   -2.4174   60.3127 C.3     1  ZINC000058043838    0.1000
      5 N5        -13.3591   -1.0400   60.3246 N.am    1  ZINC000058043838   -0.5200
      6 C6        -14.2093   -0.0138   60.1231 C.2     1  ZINC000058043838    0.5100
      7 O7        -15.3870   -0.2309   59.9305 O.2     1  ZINC000058043838   -0.4500
      8 C8        -13.6968    1.4033   60.1370 C.3     1  ZINC000058043838   -0.0900
      9 C9        -13.1455    1.7514   58.7784 C.ar    1  ZINC000058043838   -0.1400
     10 C10       -13.8322    1.3916   57.6290 C.ar    1  ZINC000058043838   -0.0500
     11 C11       -13.2872    1.7330   56.4004 C.ar    1  ZINC000058043838   -0.1700
     12 C12       -12.0865    2.4159   56.3628 C.ar    1  ZINC000058043838    0.1300
     13 C13       -11.4853    2.7926   55.0333 C.3     1  ZINC000058043838   -0.1100
     14 N14       -11.4606    2.7421   57.4770 N.ar    1  ZINC000058043838   -0.4800
     15 C15       -11.9517    2.4383   58.6624 C.ar    1  ZINC000058043838    0.1200
     16 C16       -12.0097   -0.7914   60.5434 C.2     1  ZINC000058043838    0.3100
     17 N17       -11.4847   -0.4535   61.6797 N.2     1  ZINC000058043838   -0.4700
     18 C18       -10.1739   -0.2564   61.7024 C.2     1  ZINC000058043838    0.1100
     19 C19        -9.4520    0.1327   62.9382 C.ar    1  ZINC000058043838    0.0400
     20 C20        -8.5759   -0.7636   63.5481 C.ar    1  ZINC000058043838   -0.0800
     21 C21        -7.9065   -0.3959   64.6976 C.ar    1  ZINC000058043838   -0.0500
     22 C22        -8.1036    0.8593   65.2445 C.ar    1  ZINC000058043838   -0.0400
     23 N23        -7.3826    1.2479   66.4777 N.pl3   1  ZINC000058043838    0.0300
     24 O24        -6.6177    0.4630   67.0088 O.2     1  ZINC000058043838   -0.1600
     25 O25        -7.5545    2.3526   66.9611 O.2     1  ZINC000058043838   -0.1600
     26 C26        -8.9715    1.7531   64.6432 C.ar    1  ZINC000058043838   -0.0500
     27 C27        -9.6427    1.3980   63.4907 C.ar    1  ZINC000058043838   -0.1100
     28 C28        -9.5439   -0.4340   60.5273 C.2     1  ZINC000058043838   -0.2600
     29 S29       -10.7448   -0.8936   59.3223 S.3     1  ZINC000058043838    0.1500
     30 H30       -14.0279   -3.4859   56.3313 H       1  ZINC000058043838    0.0500
     31 H31       -13.8217   -1.7259   56.4992 H       1  ZINC000058043838    0.0400
     32 H32       -12.4204   -2.7534   56.1129 H       1  ZINC000058043838    0.0900
     33 H33       -14.9470   -2.0573   58.4895 H       1  ZINC000058043838    0.0600
     34 H34       -14.7448   -3.7780   58.8976 H       1  ZINC000058043838    0.0800
     35 H35       -14.7256   -2.4953   60.9676 H       1  ZINC000058043838    0.1200
     36 H36       -13.0754   -3.0900   60.6645 H       1  ZINC000058043838    0.1000
     37 H37       -14.5132    2.0825   60.3827 H       1  ZINC000058043838    0.1100
     38 H38       -12.9086    1.4973   60.8839 H       1  ZINC000058043838    0.1100
     39 H39       -14.7690    0.8577   57.6891 H       1  ZINC000058043838    0.1300
     40 H40       -13.7948    1.4685   55.4845 H       1  ZINC000058043838    0.1400
     41 H41       -11.8476    3.7769   54.7365 H       1  ZINC000058043838    0.0800
     42 H42       -10.3989    2.8161   55.1193 H       1  ZINC000058043838    0.0800
     43 H43       -11.7745    2.0573   54.2824 H       1  ZINC000058043838    0.0800
     44 H44       -11.4105    2.7221   59.5530 H       1  ZINC000058043838    0.1500
     45 H45        -8.4215   -1.7440   63.1223 H       1  ZINC000058043838    0.1600
     46 H46        -7.2277   -1.0896   65.1713 H       1  ZINC000058043838    0.1600
     47 H47        -9.1217    2.7318   65.0745 H       1  ZINC000058043838    0.1600
     48 H48       -10.3197    2.0967   63.0219 H       1  ZINC000058043838    0.1500
     49 H49        -8.4843   -0.3186   60.3533 H       1  ZINC000058043838    0.1800
@<TRIPOS>BOND
     1     1     2    1
     2     1    30    1
     3     1    31    1
     4     1    32    1
     5     2     3    1
     6     3     4    1
     7     3    33    1
     8     3    34    1
     9     4     5    1
    10     4    35    1
    11     4    36    1
    12     5     6   am
    13     5    16    1
    14     6     7    2
    15     6     8    1
    16     8     9    1
    17     8    37    1
    18     8    38    1
    19     9    15   ar
    20     9    10   ar
    21    10    11   ar
    22    10    39    1
    23    11    12   ar
    24    11    40    1
    25    12    13    1
    26    12    14   ar
    27    13    41    1
    28    13    42    1
    29    13    43    1
    30    14    15   ar
    31    15    44    1
    32    16    29    1
    33    16    17    2
    34    17    18    1
    35    18    19    1
    36    18    28    2
    37    19    27   ar
    38    19    20   ar
    39    20    21   ar
    40    20    45    1
    41    21    22   ar
    42    21    46    1
    43    22    23    1
    44    22    26   ar
    45    23    24    2
    46    23    25    2
    47    26    27   ar
    48    26    47    1
    49    27    48    1
    50    28    29    1
    51    28    49    1
@<TRIPOS>SUBSTRUCTURE
     1 ZINC000058043838        1 TEMP              0 ****  ****    0 ROOT


##########                                Name:    ZINC000989658617
##########                DOCK_Rotatable_Bonds:                   6
##########                         Heavy_Atoms:                  24
##########                    Molecular_Weight:             334.418
##########                DOCK_Rotatable_Bonds:                   6
##########                       Formal_Charge:          -0.0100001
##########                     HBond_Acceptors:                   7
##########                        HBond_Donors:                   2
##########                         Heavy_Atoms:                  24
##########                          Grid_Score:          -31.920586
##########                     Grid_vdw_energy:          -32.120491
##########                      Grid_es_energy:            0.199905
##########           Internal_energy_repulsive:           12.688176

@<TRIPOS>MOLECULE
ZINC000989658617
 50 52 1 0 0
SMALL
USER_CHARGES


@<TRIPOS>ATOM
      1 C1        -15.5606   -2.6095   56.2340 C.3     1  ZINC000989658617    0.0300
      2 O2        -14.3937   -3.4313   56.1613 O.3     1  ZINC000989658617   -0.3700
      3 C3        -14.0831   -4.1089   57.3805 C.3     1  ZINC000989658617    0.0500
      4 C4        -13.8468   -3.0966   58.4716 C.2     1  ZINC000989658617    0.5300
      5 O5        -14.7732   -2.7129   59.1538 O.2     1  ZINC000989658617   -0.5100
      6 N6        -12.6060   -2.6178   58.6893 N.am    1  ZINC000989658617   -0.6200
      7 C7        -11.3951   -2.9960   57.9383 C.3     1  ZINC000989658617    0.1000
      8 C8        -10.2208   -2.7009   58.9046 C.3     1  ZINC000989658617   -0.1500
      9 C9        -10.7127   -1.4079   59.6070 C.3     1  ZINC000989658617    0.1400
     10 H10       -10.4934   -0.5309   58.9979 H       1  ZINC000989658617    0.1100
     11 N11       -10.1092   -1.2780   60.9355 N.am    1  ZINC000989658617   -0.7100
     12 C12        -9.5961   -0.0958   61.3300 C.2     1  ZINC000989658617    0.6100
     13 O13        -9.6327    0.8624   60.5827 O.2     1  ZINC000989658617   -0.5200
     14 C14        -8.9892    0.0356   62.6702 C.2     1  ZINC000989658617   -0.0100
     15 N15        -8.3417   -0.9030   63.3394 N.2     1  ZINC000989658617   -0.2600
     16 N16        -7.9452   -0.4442   64.4762 N.pl3   1  ZINC000989658617   -0.3700
     17 C17        -8.3181    0.8392   64.6100 C.2     1  ZINC000989658617    0.0100
     18 C18        -8.9823    1.1840   63.4794 C.2     1  ZINC000989658617   -0.1400
     19 C19        -9.5765    2.5405   63.2177 C.3     1  ZINC000989658617   -0.0400
     20 C20        -9.6652    3.2930   64.5523 C.3     1  ZINC000989658617   -0.0900
     21 H21       -10.4379    2.8405   65.1737 H       1  ZINC000989658617    0.0700
     22 C22       -10.0164    4.7586   64.2888 C.3     1  ZINC000989658617   -0.1500
     23 C23        -8.3177    3.2135   65.2748 C.3     1  ZINC000989658617   -0.1100
     24 C24        -8.0742    1.7806   65.7614 C.3     1  ZINC000989658617   -0.0500
     25 C25       -12.2369   -1.6268   59.7108 C.3     1  ZINC000989658617    0.1300
     26 H26       -12.4899   -2.0093   60.6996 H       1  ZINC000989658617    0.0800
     27 C27       -12.9703   -0.3077   59.4599 C.3     1  ZINC000989658617   -0.1600
     28 H28       -16.4233   -3.2251   56.4886 H       1  ZINC000989658617    0.0500
     29 H29       -15.4203   -1.8462   56.9995 H       1  ZINC000989658617    0.0400
     30 H30       -15.7282   -2.1302   55.2695 H       1  ZINC000989658617    0.0900
     31 H31       -14.9151   -4.7556   57.6588 H       1  ZINC000989658617    0.0800
     32 H32       -13.1850   -4.7110   57.2428 H       1  ZINC000989658617    0.0800
     33 H33       -11.4211   -4.0559   57.6853 H       1  ZINC000989658617    0.0800
     34 H34       -11.3043   -2.3919   57.0356 H       1  ZINC000989658617    0.0800
     35 H35       -10.0928   -3.5110   59.6226 H       1  ZINC000989658617    0.0800
     36 H36        -9.2978   -2.5196   58.3540 H       1  ZINC000989658617    0.1000
     37 H37       -10.0789   -2.0428   61.5313 H       1  ZINC000989658617    0.4100
     38 H38        -7.4499   -0.9512   65.1383 H       1  ZINC000989658617    0.4500
     39 H39        -8.9405    3.0929   62.5258 H       1  ZINC000989658617    0.0800
     40 H40       -10.5735    2.4289   62.7917 H       1  ZINC000989658617    0.0800
     41 H41       -10.9760    4.8156   63.7750 H       1  ZINC000989658617    0.0600
     42 H42       -10.0795    5.2933   65.2366 H       1  ZINC000989658617    0.0600
     43 H43        -9.2440    5.2113   63.6670 H       1  ZINC000989658617    0.0600
     44 H44        -7.5208    3.5008   64.5890 H       1  ZINC000989658617    0.0700
     45 H45        -8.3230    3.8914   66.1284 H       1  ZINC000989658617    0.0800
     46 H46        -8.7630    1.5464   66.5731 H       1  ZINC000989658617    0.0800
     47 H47        -7.0466    1.6810   66.1108 H       1  ZINC000989658617    0.0800
     48 H48       -12.7268    0.0595   58.4630 H       1  ZINC000989658617    0.0600
     49 H49       -14.0456   -0.4700   59.5348 H       1  ZINC000989658617    0.0700
     50 H50       -12.6611    0.4270   60.2033 H       1  ZINC000989658617    0.0700
@<TRIPOS>BOND
     1     1     2    1
     2     1    28    1
     3     1    29    1
     4     1    30    1
     5     2     3    1
     6     3     4    1
     7     3    31    1
     8     3    32    1
     9     4     5    2
    10     4     6   am
    11     6    25    1
    12     6     7    1
    13     7     8    1
    14     7    33    1
    15     7    34    1
    16     8     9    1
    17     8    35    1
    18     8    36    1
    19     9    10    1
    20     9    11    1
    21     9    25    1
    22    11    12   am
    23    11    37    1
    24    12    13    2
    25    12    14    1
    26    14    18    1
    27    14    15    2
    28    15    16    1
    29    16    17    1
    30    16    38    1
    31    17    24    1
    32    17    18    2
    33    18    19    1
    34    19    20    1
    35    19    39    1
    36    19    40    1
    37    20    21    1
    38    20    22    1
    39    20    23    1
    40    22    41    1
    41    22    42    1
    42    22    43    1
    43    23    24    1
    44    23    44    1
    45    23    45    1
    46    24    46    1
    47    24    47    1
    48    25    26    1
    49    25    27    1
    50    27    48    1
    51    27    49    1
    52    27    50    1
@<TRIPOS>SUBSTRUCTURE
     1 ZINC000989658617        1 TEMP              0 ****  ****    0 ROOT


##########                                Name:    ZINC000482540246
##########                DOCK_Rotatable_Bonds:                  10
##########                         Heavy_Atoms:                  30
##########                    Molecular_Weight:              409.46
##########                DOCK_Rotatable_Bonds:                  10
##########                       Formal_Charge:         2.83122e-07
##########                     HBond_Acceptors:                   7
##########                        HBond_Donors:                   2
##########                         Heavy_Atoms:                  30
##########                          Grid_Score:          -31.918985
##########                     Grid_vdw_energy:          -32.410370
##########                      Grid_es_energy:            0.491384
##########           Internal_energy_repulsive:           42.689140

@<TRIPOS>MOLECULE
ZINC000482540246
 54 56 1 0 0
SMALL
USER_CHARGES


@<TRIPOS>ATOM
      1 C1         -9.9296    5.1157   57.8195 C.3     1  ZINC000482540246    0.0400
      2 O2         -9.6719    4.2074   58.8922 O.3     1  ZINC000482540246   -0.3100
      3 C3        -10.7431    3.5775   59.4367 C.ar    1  ZINC000482540246    0.3300
      4 C4        -10.5535    2.6585   60.4606 C.ar    1  ZINC000482540246   -0.1800
      5 C5        -11.6547    2.0228   61.0075 C.ar    1  ZINC000482540246   -0.0100
      6 C6        -11.4915    1.0196   62.1203 C.3     1  ZINC000482540246    0.2000
      7 H7        -11.9912    1.3867   63.0166 H       1  ZINC000482540246    0.1000
      8 C8        -10.0029    0.8194   62.4121 C.3     1  ZINC000482540246   -0.1600
      9 N9        -12.0862   -0.2572   61.7176 N.am    1  ZINC000482540246   -0.7400
     10 C10       -11.7447   -0.8183   60.5407 C.2     1  ZINC000482540246    0.7100
     11 O11       -10.9443   -0.2639   59.8125 O.2     1  ZINC000482540246   -0.5800
     12 N12       -12.2906   -1.9938   60.1709 N.am    1  ZINC000482540246   -0.7400
     13 C13       -11.9181   -2.6044   58.8924 C.3     1  ZINC000482540246    0.2100
     14 H14       -12.2389   -3.6461   58.8801 H       1  ZINC000482540246    0.1200
     15 C15       -10.3997   -2.5362   58.7179 C.3     1  ZINC000482540246    0.0500
     16 O16        -9.9285   -3.7648   58.1605 O.3     1  ZINC000482540246   -0.3000
     17 C17        -8.6501   -3.7827   57.6982 C.ar    1  ZINC000482540246    0.1000
     18 C18        -7.5927   -3.5845   58.5724 C.ar    1  ZINC000482540246   -0.1800
     19 C19        -6.2937   -3.6037   58.1004 C.ar    1  ZINC000482540246   -0.0900
     20 C20        -6.0472   -3.8203   56.7578 C.ar    1  ZINC000482540246   -0.1300
     21 C21        -7.0993   -4.0181   55.8820 C.ar    1  ZINC000482540246   -0.1200
     22 C22        -8.4006   -4.0056   56.3497 C.ar    1  ZINC000482540246    0.0700
     23 F23        -9.4286   -4.1988   55.4945 F       1  ZINC000482540246   -0.1300
     24 C24       -12.5871   -1.8595   57.7661 C.ar    1  ZINC000482540246   -0.1000
     25 C25       -12.4492   -2.3050   56.4647 C.ar    1  ZINC000482540246   -0.0800
     26 C26       -13.0628   -1.6216   55.4316 C.ar    1  ZINC000482540246   -0.1200
     27 C27       -13.8148   -0.4932   55.6998 C.ar    1  ZINC000482540246   -0.1200
     28 C28       -13.9535   -0.0483   57.0011 C.ar    1  ZINC000482540246   -0.1200
     29 C29       -13.3434   -0.7341   58.0348 C.ar    1  ZINC000482540246   -0.1000
     30 C30       -12.9123    2.3305   60.5082 C.ar    1  ZINC000482540246   -0.2100
     31 C31       -13.0268    3.2547   59.4884 C.ar    1  ZINC000482540246    0.1500
     32 N32       -11.9587    3.8484   58.9909 N.ar    1  ZINC000482540246   -0.5400
     33 H33        -8.9900    5.5492   57.4769 H       1  ZINC000482540246    0.1000
     34 H34       -10.4043    4.5810   56.9967 H       1  ZINC000482540246    0.0600
     35 H35       -10.5909    5.9095   58.1666 H       1  ZINC000482540246    0.0600
     36 H36        -9.5599    2.4426   60.8250 H       1  ZINC000482540246    0.1500
     37 H37        -9.5031    0.4523   61.5158 H       1  ZINC000482540246    0.0600
     38 H38        -9.5605    1.7694   62.7117 H       1  ZINC000482540246    0.0700
     39 H39        -9.8849    0.0938   63.2169 H       1  ZINC000482540246    0.0700
     40 H40       -12.7257   -0.6989   62.2980 H       1  ZINC000482540246    0.4000
     41 H41       -12.9301   -2.4355   60.7513 H       1  ZINC000482540246    0.4000
     42 H42       -10.1475   -1.7133   58.0490 H       1  ZINC000482540246    0.0800
     43 H43        -9.9294   -2.3732   59.6876 H       1  ZINC000482540246    0.0800
     44 H44        -7.7839   -3.4148   59.6218 H       1  ZINC000482540246    0.1400
     45 H45        -5.4701   -3.4489   58.7817 H       1  ZINC000482540246    0.1300
     46 H46        -5.0313   -3.8347   56.3918 H       1  ZINC000482540246    0.1400
     47 H47        -6.9041   -4.1867   54.8333 H       1  ZINC000482540246    0.1400
     48 H48       -11.8617   -3.1867   56.2553 H       1  ZINC000482540246    0.1200
     49 H49       -12.9544   -1.9693   54.4148 H       1  ZINC000482540246    0.1200
     50 H50       -14.2937    0.0410   54.8925 H       1  ZINC000482540246    0.1200
     51 H51       -14.5407    0.8336   57.2107 H       1  ZINC000482540246    0.1200
     52 H52       -13.4518   -0.3864   59.0516 H       1  ZINC000482540246    0.1200
     53 H53       -13.7922    1.8522   60.9125 H       1  ZINC000482540246    0.1400
     54 H54       -14.0032    3.4978   59.0963 H       1  ZINC000482540246    0.1600
@<TRIPOS>BOND
     1     1     2    1
     2     1    33    1
     3     1    34    1
     4     1    35    1
     5     2     3    1
     6     3    32   ar
     7     3     4   ar
     8     4     5   ar
     9     4    36    1
    10     5     6    1
    11     5    30   ar
    12     6     7    1
    13     6     8    1
    14     6     9    1
    15     8    37    1
    16     8    38    1
    17     8    39    1
    18     9    10   am
    19     9    40    1
    20    10    11    2
    21    10    12   am
    22    12    13    1
    23    12    41    1
    24    13    14    1
    25    13    15    1
    26    13    24    1
    27    15    16    1
    28    15    42    1
    29    15    43    1
    30    16    17    1
    31    17    22   ar
    32    17    18   ar
    33    18    19   ar
    34    18    44    1
    35    19    20   ar
    36    19    45    1
    37    20    21   ar
    38    20    46    1
    39    21    22   ar
    40    21    47    1
    41    22    23    1
    42    24    29   ar
    43    24    25   ar
    44    25    26   ar
    45    25    48    1
    46    26    27   ar
    47    26    49    1
    48    27    28   ar
    49    27    50    1
    50    28    29   ar
    51    28    51    1
    52    29    52    1
    53    30    31   ar
    54    30    53    1
    55    31    32   ar
    56    31    54    1
@<TRIPOS>SUBSTRUCTURE
     1 ZINC000482540246        1 TEMP              0 ****  ****    0 ROOT


##########                                Name:    ZINC000047262406
##########                DOCK_Rotatable_Bonds:                   6
##########                         Heavy_Atoms:                  28
##########                    Molecular_Weight:             417.919
##########                DOCK_Rotatable_Bonds:                   6
##########                       Formal_Charge:          -0.0100002
##########                     HBond_Acceptors:                   9
##########                        HBond_Donors:                   1
##########                         Heavy_Atoms:                  28
##########                          Grid_Score:          -31.915642
##########                     Grid_vdw_energy:          -31.097395
##########                      Grid_es_energy:           -0.818247
##########           Internal_energy_repulsive:           17.505499

@<TRIPOS>MOLECULE
ZINC000047262406
 48 51 1 0 0
SMALL
USER_CHARGES


@<TRIPOS>ATOM
      1 C1        -14.6970   -3.9816   57.3449 C.3     1  ZINC000047262406   -0.1500
      2 C2        -14.6629   -2.4524   57.3835 C.3     1  ZINC000047262406    0.1800
      3 H3        -15.6815   -2.0674   57.4321 H       1  ZINC000047262406    0.0800
      4 C4        -13.9886   -1.9335   56.1397 C.2     1  ZINC000047262406    0.1700
      5 N5        -12.9344   -2.4425   55.5672 N.2     1  ZINC000047262406   -0.2500
      6 N6        -12.6302   -1.7480   54.5278 N.2     1  ZINC000047262406   -0.2700
      7 C7        -13.4898   -0.7607   54.3999 C.2     1  ZINC000047262406    0.2400
      8 C8        -13.4945    0.2611   53.3423 C.2     1  ZINC000047262406   -0.1500
      9 C9        -14.3936    1.2777   53.2336 C.2     1  ZINC000047262406   -0.0600
     10 C10       -14.1878    2.1075   52.1536 C.2     1  ZINC000047262406   -0.1400
     11 C11       -13.1432    1.7892   51.3822 C.2     1  ZINC000047262406   -0.1900
     12 S12       -12.3351    0.3656   52.0237 S.3     1  ZINC000047262406    0.1700
     13 O13       -14.3700   -0.8646   55.4170 O.3     1  ZINC000047262406   -0.2200
     14 N14       -13.9148   -2.0090   58.5674 N.3     1  ZINC000047262406   -0.5200
     15 C15       -13.9965   -0.5514   58.7260 C.3     1  ZINC000047262406    0.0500
     16 C16       -13.3321   -0.1423   60.0425 C.3     1  ZINC000047262406   -0.1000
     17 C17       -11.8684   -0.5920   60.0314 C.3     1  ZINC000047262406   -0.1100
     18 C18       -11.2249   -0.2450   61.3491 C.2     1  ZINC000047262406    0.5100
     19 O19       -11.9149   -0.0326   62.3236 O.2     1  ZINC000047262406   -0.4600
     20 N20        -9.8825   -0.1710   61.4447 N.am    1  ZINC000047262406   -0.6600
     21 C21        -9.2870    0.1501   62.6643 C.ar    1  ZINC000047262406    0.3600
     22 C22        -9.2386    1.4759   63.0785 C.ar    1  ZINC000047262406   -0.2000
     23 C23        -8.6452    1.7813   64.2910 C.ar    1  ZINC000047262406   -0.0400
     24 C24        -8.1184    0.7447   65.0504 C.ar    1  ZINC000047262406   -0.1200
     25 Cl25       -7.3638    1.0726   66.5791 Cl      1  ZINC000047262406   -0.0500
     26 C26        -8.2020   -0.5510   64.5761 C.ar    1  ZINC000047262406    0.1500
     27 N27        -8.7781   -0.8112   63.4185 N.ar    1  ZINC000047262406   -0.4600
     28 C28       -11.8098   -2.1069   59.8163 C.3     1  ZINC000047262406   -0.1100
     29 C29       -12.5183   -2.4591   58.5064 C.3     1  ZINC000047262406    0.0600
     30 H30       -15.1847   -4.3569   58.2446 H       1  ZINC000047262406    0.0800
     31 H31       -15.2521   -4.3107   56.4665 H       1  ZINC000047262406    0.0700
     32 H32       -13.6784   -4.3666   57.2963 H       1  ZINC000047262406    0.0800
     33 H33       -15.2013    1.4215   53.9360 H       1  ZINC000047262406    0.1600
     34 H34       -14.8249    2.9543   51.9446 H       1  ZINC000047262406    0.1600
     35 H35       -12.8383    2.3293   50.4981 H       1  ZINC000047262406    0.1800
     36 H36       -13.4845   -0.0664   57.8948 H       1  ZINC000047262406    0.0400
     37 H37       -15.0425   -0.2452   58.7366 H       1  ZINC000047262406    0.0900
     38 H38       -13.3790    0.9412   60.1525 H       1  ZINC000047262406    0.0800
     39 H39       -13.8520   -0.6160   60.8752 H       1  ZINC000047262406    0.0900
     40 H40       -11.3386   -0.0877   59.2233 H       1  ZINC000047262406    0.1000
     41 H41        -9.3307   -0.3408   60.6653 H       1  ZINC000047262406    0.4200
     42 H42        -9.6581    2.2574   62.4623 H       1  ZINC000047262406    0.1500
     43 H43        -8.5927    2.8026   64.6385 H       1  ZINC000047262406    0.1500
     44 H44        -7.7935   -1.3608   65.1625 H       1  ZINC000047262406    0.1700
     45 H45       -10.7692   -2.4271   59.7648 H       1  ZINC000047262406    0.0700
     46 H46       -12.3058   -2.6116   60.6455 H       1  ZINC000047262406    0.0800
     47 H47       -12.4908   -3.5385   58.3575 H       1  ZINC000047262406    0.0700
     48 H48       -12.0134   -1.9651   57.6762 H       1  ZINC000047262406    0.0400
@<TRIPOS>BOND
     1     1     2    1
     2     1    30    1
     3     1    31    1
     4     1    32    1
     5     2     3    1
     6     2     4    1
     7     2    14    1
     8     4    13    1
     9     4     5    2
    10     5     6    1
    11     6     7    2
    12     7     8    1
    13     7    13    1
    14     8    12    1
    15     8     9    2
    16     9    10    1
    17     9    33    1
    18    10    11    2
    19    10    34    1
    20    11    12    1
    21    11    35    1
    22    14    29    1
    23    14    15    1
    24    15    16    1
    25    15    36    1
    26    15    37    1
    27    16    17    1
    28    16    38    1
    29    16    39    1
    30    17    18    1
    31    17    28    1
    32    17    40    1
    33    18    19    2
    34    18    20   am
    35    20    21    1
    36    20    41    1
    37    21    27   ar
    38    21    22   ar
    39    22    23   ar
    40    22    42    1
    41    23    24   ar
    42    23    43    1
    43    24    25    1
    44    24    26   ar
    45    26    27   ar
    46    26    44    1
    47    28    29    1
    48    28    45    1
    49    28    46    1
    50    29    47    1
    51    29    48    1
@<TRIPOS>SUBSTRUCTURE
     1 ZINC000047262406        1 TEMP              0 ****  ****    0 ROOT


##########                                Name:    ZINC001461256440
##########                DOCK_Rotatable_Bonds:                  13
##########                         Heavy_Atoms:                  26
##########                    Molecular_Weight:             367.445
##########                DOCK_Rotatable_Bonds:                  13
##########                       Formal_Charge:        -6.37025e-07
##########                     HBond_Acceptors:                   8
##########                        HBond_Donors:                   1
##########                         Heavy_Atoms:                  26
##########                          Grid_Score:          -31.876083
##########                     Grid_vdw_energy:          -32.807281
##########                      Grid_es_energy:            0.931198
##########           Internal_energy_repulsive:           38.072044

@<TRIPOS>MOLECULE
ZINC001461256440
 55 55 1 0 0
SMALL
USER_CHARGES


@<TRIPOS>ATOM
      1 C1        -14.1614   -1.4759   60.0503 C.3     1  ZINC001461256440   -0.1500
      2 C2        -12.8507   -2.2564   59.9314 C.3     1  ZINC001461256440    0.0600
      3 O3        -11.7389   -1.3920   60.2852 O.3     1  ZINC001461256440   -0.3600
      4 C4        -10.5125   -1.9369   60.2633 C.2     1  ZINC001461256440    0.4400
      5 O5        -10.3846   -3.1326   60.1460 O.2     1  ZINC001461256440   -0.4800
      6 C6         -9.2949   -1.0573   60.3853 C.3     1  ZINC001461256440    0.1400
      7 N7         -9.2150   -0.5200   61.7459 N.pl3   1  ZINC001461256440   -0.3800
      8 N8         -8.5544   -1.1135   62.8290 N.2     1  ZINC001461256440   -0.2800
      9 C9         -8.7020   -0.3417   63.8753 C.2     1  ZINC001461256440    0.1000
     10 C10        -8.1479   -0.6058   65.2516 C.3     1  ZINC001461256440   -0.0700
     11 C11        -9.4605    0.7697   63.4980 C.2     1  ZINC001461256440   -0.2700
     12 C12        -9.7611    0.6400   62.1769 C.2     1  ZINC001461256440    0.3100
     13 N13       -10.5044    1.5363   61.4091 N.am    1  ZINC001461256440   -0.6500
     14 C14       -10.1185    2.8241   61.3144 C.2     1  ZINC001461256440    0.5200
     15 O15        -9.1239    3.2034   61.8958 O.2     1  ZINC001461256440   -0.5000
     16 C16       -10.9226    3.7928   60.4863 C.3     1  ZINC001461256440   -0.1300
     17 C17       -10.7995    3.4236   59.0067 C.3     1  ZINC001461256440   -0.1100
     18 C18        -9.5537    4.0879   58.4172 C.3     1  ZINC001461256440   -0.1100
     19 C19        -8.4250    3.0594   58.3199 C.3     1  ZINC001461256440   -0.1200
     20 C20        -7.1998    3.7122   57.7337 C.2     1  ZINC001461256440    0.4600
     21 O21        -7.0013    3.6650   56.5428 O.2     1  ZINC001461256440   -0.5000
     22 O22        -6.3289    4.3461   58.5347 O.3     1  ZINC001461256440   -0.3500
     23 C23        -5.1712    4.9518   57.9013 C.3     1  ZINC001461256440    0.1200
     24 C24        -4.3010    5.6237   58.9653 C.3     1  ZINC001461256440   -0.1800
     25 C25        -4.3582    3.8716   57.1851 C.3     1  ZINC001461256440   -0.1400
     26 C26        -5.6346    5.9985   56.8861 C.3     1  ZINC001461256440   -0.1800
     27 H27       -14.9960   -2.1248   59.7848 H       1  ZINC001461256440    0.0800
     28 H28       -14.2845   -1.1267   61.0754 H       1  ZINC001461256440    0.0700
     29 H29       -14.1373   -0.6204   59.3754 H       1  ZINC001461256440    0.0700
     30 H30       -12.8748   -3.1120   60.6064 H       1  ZINC001461256440    0.0700
     31 H31       -12.7276   -2.6056   58.9062 H       1  ZINC001461256440    0.0700
     32 H32        -8.4007   -1.6432   60.1729 H       1  ZINC001461256440    0.1300
     33 H33        -9.3679   -0.2350   59.6737 H       1  ZINC001461256440    0.1400
     34 H34        -7.1536   -0.1667   65.3335 H       1  ZINC001461256440    0.0800
     35 H35        -8.8044   -0.1606   65.9991 H       1  ZINC001461256440    0.0800
     36 H36        -8.0849   -1.6813   65.4178 H       1  ZINC001461256440    0.0700
     37 H37        -9.7530    1.5878   64.1396 H       1  ZINC001461256440    0.1800
     38 H38       -11.2992    1.2326   60.9432 H       1  ZINC001461256440    0.4100
     39 H39       -11.9694    3.7458   60.7867 H       1  ZINC001461256440    0.1000
     40 H40       -10.5454    4.8037   60.6412 H       1  ZINC001461256440    0.1000
     41 H41       -10.7154    2.3414   58.9080 H       1  ZINC001461256440    0.0800
     42 H42       -11.6835    3.7696   58.4711 H       1  ZINC001461256440    0.0800
     43 H43        -9.7824    4.4714   57.4229 H       1  ZINC001461256440    0.0700
     44 H44        -9.2413    4.9102   59.0609 H       1  ZINC001461256440    0.0700
     45 H45        -8.1933    2.6790   59.3147 H       1  ZINC001461256440    0.1100
     46 H46        -8.7390    2.2350   57.6797 H       1  ZINC001461256440    0.1100
     47 H47        -3.9709    4.8780   59.6886 H       1  ZINC001461256440    0.0600
     48 H48        -3.4318    6.0784   58.4899 H       1  ZINC001461256440    0.0700
     49 H49        -4.8802    6.3933   59.4756 H       1  ZINC001461256440    0.0800
     50 H50        -4.9781    3.3929   56.4271 H       1  ZINC001461256440    0.0700
     51 H51        -3.4891    4.3263   56.7097 H       1  ZINC001461256440    0.0800
     52 H52        -4.0280    3.1259   57.9084 H       1  ZINC001461256440    0.0700
     53 H53        -6.2138    6.7681   57.3963 H       1  ZINC001461256440    0.0800
     54 H54        -4.7656    6.4532   56.4106 H       1  ZINC001461256440    0.0700
     55 H55        -6.2545    5.5199   56.1281 H       1  ZINC001461256440    0.0600
@<TRIPOS>BOND
     1     1     2    1
     2     1    27    1
     3     1    28    1
     4     1    29    1
     5     2     3    1
     6     2    30    1
     7     2    31    1
     8     3     4    1
     9     4     5    2
    10     4     6    1
    11     6     7    1
    12     6    32    1
    13     6    33    1
    14     7    12    1
    15     7     8    1
    16     8     9    2
    17     9    10    1
    18     9    11    1
    19    10    34    1
    20    10    35    1
    21    10    36    1
    22    11    12    2
    23    11    37    1
    24    12    13    1
    25    13    14   am
    26    13    38    1
    27    14    15    2
    28    14    16    1
    29    16    17    1
    30    16    39    1
    31    16    40    1
    32    17    18    1
    33    17    41    1
    34    17    42    1
    35    18    19    1
    36    18    43    1
    37    18    44    1
    38    19    20    1
    39    19    45    1
    40    19    46    1
    41    20    21    2
    42    20    22    1
    43    22    23    1
    44    23    24    1
    45    23    25    1
    46    23    26    1
    47    24    47    1
    48    24    48    1
    49    24    49    1
    50    25    50    1
    51    25    51    1
    52    25    52    1
    53    26    53    1
    54    26    54    1
    55    26    55    1
@<TRIPOS>SUBSTRUCTURE
     1 ZINC001461256440        1 TEMP              0 ****  ****    0 ROOT


##########                                Name:    ZINC000123469372
##########                DOCK_Rotatable_Bonds:                   7
##########                         Heavy_Atoms:                  25
##########                    Molecular_Weight:             341.382
##########                DOCK_Rotatable_Bonds:                   7
##########                       Formal_Charge:          -0.0300001
##########                     HBond_Acceptors:                   5
##########                        HBond_Donors:                   2
##########                         Heavy_Atoms:                  25
##########                          Grid_Score:          -31.859446
##########                     Grid_vdw_energy:          -31.311092
##########                      Grid_es_energy:           -0.548354
##########           Internal_energy_repulsive:           11.837736

@<TRIPOS>MOLECULE
ZINC000123469372
 45 47 1 0 0
SMALL
USER_CHARGES


@<TRIPOS>ATOM
      1 C1        -14.6460   -2.3224   60.3318 C.3     1  ZINC000123469372   -0.1700
      2 C2        -14.1172   -1.5393   59.1284 C.3     1  ZINC000123469372    0.1500
      3 H3        -14.5725   -1.9242   58.2159 H       1  ZINC000123469372    0.0900
      4 C4        -14.4690   -0.0590   59.2887 C.3     1  ZINC000123469372   -0.1600
      5 C5        -13.4962    0.5926   60.2736 C.3     1  ZINC000123469372    0.1500
      6 H6        -13.0372   -0.1772   60.8938 H       1  ZINC000123469372    0.1100
      7 O7        -14.2053    1.5139   61.1046 O.3     1  ZINC000123469372   -0.5500
      8 C8        -12.4248    1.3272   59.5096 C.ar    1  ZINC000123469372   -0.1200
      9 C9        -12.7702    2.3457   58.6411 C.ar    1  ZINC000123469372   -0.1100
     10 C10       -11.7874    3.0196   57.9404 C.ar    1  ZINC000123469372   -0.1200
     11 C11       -10.4592    2.6752   58.1085 C.ar    1  ZINC000123469372   -0.1200
     12 C12       -10.1138    1.6573   58.9777 C.ar    1  ZINC000123469372   -0.1200
     13 C13       -11.0962    0.9863   59.6817 C.ar    1  ZINC000123469372   -0.1100
     14 N14       -12.6621   -1.6896   59.0491 N.am    1  ZINC000123469372   -0.7100
     15 C15       -12.1282   -2.7767   58.4579 C.2     1  ZINC000123469372    0.5700
     16 O16       -12.8549   -3.6344   57.9910 O.2     1  ZINC000123469372   -0.5400
     17 C17       -10.6756   -2.9259   58.3772 C.2     1  ZINC000123469372   -0.2200
     18 C18       -10.1081   -3.4813   57.2781 C.2     1  ZINC000123469372    0.0000
     19 C19        -8.6442   -3.6256   57.2582 C.ar    1  ZINC000123469372   -0.1200
     20 C20        -7.9528   -3.8678   56.0721 C.ar    1  ZINC000123469372   -0.0900
     21 C21        -6.5773   -3.9970   56.1006 C.ar    1  ZINC000123469372    0.0700
     22 F22        -5.9000   -4.2314   54.9554 F       1  ZINC000123469372   -0.1400
     23 C23        -5.8887   -3.8864   57.2997 C.ar    1  ZINC000123469372   -0.1100
     24 C24        -6.5663   -3.6465   58.4811 C.ar    1  ZINC000123469372   -0.1200
     25 C25        -7.9428   -3.5142   58.4715 C.ar    1  ZINC000123469372    0.1300
     26 O26        -8.6357   -3.2793   59.6134 O.3     1  ZINC000123469372   -0.3000
     27 C27        -9.8027   -2.4576   59.5123 C.3     1  ZINC000123469372    0.1100
     28 H28       -15.7286   -2.2106   60.3908 H       1  ZINC000123469372    0.0700
     29 H29       -14.3953   -3.3770   60.2175 H       1  ZINC000123469372    0.0600
     30 H30       -14.1907   -1.9375   61.2443 H       1  ZINC000123469372    0.0600
     31 H31       -14.3951    0.4389   58.3219 H       1  ZINC000123469372    0.0900
     32 H32       -15.4866    0.0336   59.6682 H       1  ZINC000123469372    0.0800
     33 H33       -13.6334    2.0851   61.6354 H       1  ZINC000123469372    0.3700
     34 H34       -13.8078    2.6147   58.5098 H       1  ZINC000123469372    0.1200
     35 H35       -12.0573    3.8148   57.2613 H       1  ZINC000123469372    0.1200
     36 H36        -9.6915    3.2012   57.5604 H       1  ZINC000123469372    0.1200
     37 H37        -9.0761    1.3881   59.1087 H       1  ZINC000123469372    0.1200
     38 H38       -10.8263    0.1911   60.3607 H       1  ZINC000123469372    0.1200
     39 H39       -12.0829   -1.0068   59.4222 H       1  ZINC000123469372    0.4000
     40 H40       -10.7116   -3.8076   56.4439 H       1  ZINC000123469372    0.1500
     41 H41        -8.4882   -3.9543   55.1381 H       1  ZINC000123469372    0.1500
     42 H42        -4.8137   -3.9889   57.3108 H       1  ZINC000123469372    0.1500
     43 H43        -6.0214   -3.5627   59.4098 H       1  ZINC000123469372    0.1500
     44 H44        -9.5020   -1.4240   59.3414 H       1  ZINC000123469372    0.0800
     45 H45       -10.3665   -2.5164   60.4434 H       1  ZINC000123469372    0.1100
@<TRIPOS>BOND
     1     1     2    1
     2     1    28    1
     3     1    29    1
     4     1    30    1
     5     2     3    1
     6     2     4    1
     7     2    14    1
     8     4     5    1
     9     4    31    1
    10     4    32    1
    11     5     6    1
    12     5     7    1
    13     5     8    1
    14     7    33    1
    15     8    13   ar
    16     8     9   ar
    17     9    10   ar
    18     9    34    1
    19    10    11   ar
    20    10    35    1
    21    11    12   ar
    22    11    36    1
    23    12    13   ar
    24    12    37    1
    25    13    38    1
    26    14    15   am
    27    14    39    1
    28    15    16    2
    29    15    17    1
    30    17    27    1
    31    17    18    2
    32    18    19    1
    33    18    40    1
    34    19    25   ar
    35    19    20   ar
    36    20    21   ar
    37    20    41    1
    38    21    22    1
    39    21    23   ar
    40    23    24   ar
    41    23    42    1
    42    24    25   ar
    43    24    43    1
    44    25    26    1
    45    26    27    1
    46    27    44    1
    47    27    45    1
@<TRIPOS>SUBSTRUCTURE
     1 ZINC000123469372        1 TEMP              0 ****  ****    0 ROOT


##########                                Name:    ZINC000011498449
##########                DOCK_Rotatable_Bonds:                   5
##########                         Heavy_Atoms:                  21
##########                    Molecular_Weight:             331.198
##########                DOCK_Rotatable_Bonds:                   5
##########                       Formal_Charge:         1.30385e-07
##########                     HBond_Acceptors:                   7
##########                        HBond_Donors:                   1
##########                         Heavy_Atoms:                  21
##########                          Grid_Score:          -31.839685
##########                     Grid_vdw_energy:          -30.021444
##########                      Grid_es_energy:           -1.818241
##########           Internal_energy_repulsive:           12.248532

@<TRIPOS>MOLECULE
ZINC000011498449
 37 38 1 0 0
SMALL
USER_CHARGES


@<TRIPOS>ATOM
      1 C1        -10.7089   -2.8888   57.8681 C.3     1  ZINC000011498449   -0.1500
      2 C2        -12.1789   -2.5574   58.1333 C.3     1  ZINC000011498449    0.0700
      3 H3        -12.5264   -1.8308   57.3989 H       1  ZINC000011498449    0.0600
      4 C4        -12.3255   -1.9716   59.5423 C.3     1  ZINC000011498449    0.0800
      5 N5        -13.7600   -1.8374   59.8421 N.am    1  ZINC000011498449   -0.6100
      6 C6        -14.2668   -0.6767   60.3027 C.2     1  ZINC000011498449    0.5100
      7 O7        -15.4516   -0.5863   60.5454 O.2     1  ZINC000011498449   -0.5300
      8 C8        -13.3613    0.5088   60.5162 C.3     1  ZINC000011498449    0.1000
      9 N9        -12.4076    0.2083   61.5869 N.am    1  ZINC000011498449   -0.7200
     10 C10       -11.3055    0.9687   61.7407 C.2     1  ZINC000011498449    0.5600
     11 O11       -11.1034    1.9048   60.9920 O.2     1  ZINC000011498449   -0.5100
     12 C12       -10.3430    0.6646   62.8192 C.ar    1  ZINC000011498449   -0.1300
     13 C13       -10.4111    1.3504   64.0336 C.ar    1  ZINC000011498449   -0.0600
     14 C14        -9.5103    1.0618   65.0367 C.ar    1  ZINC000011498449   -0.1100
     15 C15        -8.5386    0.0937   64.8426 C.ar    1  ZINC000011498449    0.0000
     16 Cl16       -7.4089   -0.2634   66.1114 Cl      1  ZINC000011498449   -0.0400
     17 C17        -8.4648   -0.5906   63.6412 C.ar    1  ZINC000011498449   -0.1100
     18 C18        -9.3640   -0.3149   62.6306 C.ar    1  ZINC000011498449    0.0300
     19 Cl19       -9.2707   -1.1734   61.1247 Cl      1  ZINC000011498449   -0.0100
     20 C20       -14.6247   -3.0078   59.6235 C.3     1  ZINC000011498449    0.0700
     21 C21       -14.3660   -3.5431   58.2106 C.3     1  ZINC000011498449    0.0500
     22 O22       -12.9624   -3.7490   58.0339 O.3     1  ZINC000011498449   -0.3700
     23 H23       -10.6055   -3.3069   56.8668 H       1  ZINC000011498449    0.0700
     24 H24       -10.1119   -1.9802   57.9459 H       1  ZINC000011498449    0.0800
     25 H25       -10.3620   -3.6154   58.6028 H       1  ZINC000011498449    0.0700
     26 H26       -11.8598   -2.6388   60.2676 H       1  ZINC000011498449    0.0800
     27 H27       -11.8485   -0.9925   59.5843 H       1  ZINC000011498449    0.1000
     28 H28       -12.8182    0.7219   59.5953 H       1  ZINC000011498449    0.1000
     29 H29       -13.9587    1.3769   60.7948 H       1  ZINC000011498449    0.1000
     30 H30       -12.5693   -0.5379   62.1852 H       1  ZINC000011498449    0.4100
     31 H31       -11.1676    2.1057   64.1867 H       1  ZINC000011498449    0.1500
     32 H32        -9.5621    1.5921   65.9761 H       1  ZINC000011498449    0.1500
     33 H33        -7.7049   -1.3442   63.4958 H       1  ZINC000011498449    0.1500
     34 H34       -14.3905   -3.7794   60.3570 H       1  ZINC000011498449    0.0900
     35 H35       -15.6703   -2.7148   59.7194 H       1  ZINC000011498449    0.1000
     36 H36       -14.8922   -4.4883   58.0773 H       1  ZINC000011498449    0.1100
     37 H37       -14.7224   -2.8204   57.4766 H       1  ZINC000011498449    0.0600
@<TRIPOS>BOND
     1     1     2    1
     2     1    23    1
     3     1    24    1
     4     1    25    1
     5     2     3    1
     6     2    22    1
     7     2     4    1
     8     4     5    1
     9     4    26    1
    10     4    27    1
    11     5     6   am
    12     5    20    1
    13     6     7    2
    14     6     8    1
    15     8     9    1
    16     8    28    1
    17     8    29    1
    18     9    10   am
    19     9    30    1
    20    10    11    2
    21    10    12    1
    22    12    18   ar
    23    12    13   ar
    24    13    14   ar
    25    13    31    1
    26    14    15   ar
    27    14    32    1
    28    15    16    1
    29    15    17   ar
    30    17    18   ar
    31    17    33    1
    32    18    19    1
    33    20    21    1
    34    20    34    1
    35    20    35    1
    36    21    22    1
    37    21    36    1
    38    21    37    1
@<TRIPOS>SUBSTRUCTURE
     1 ZINC000011498449        1 TEMP              0 ****  ****    0 ROOT


##########                                Name:    ZINC001596273020
##########                DOCK_Rotatable_Bonds:                  11
##########                         Heavy_Atoms:                  25
##########                    Molecular_Weight:             355.478
##########                DOCK_Rotatable_Bonds:                  11
##########                       Formal_Charge:          -0.0499996
##########                     HBond_Acceptors:                   7
##########                        HBond_Donors:                   2
##########                         Heavy_Atoms:                  25
##########                          Grid_Score:          -31.835672
##########                     Grid_vdw_energy:          -23.983549
##########                      Grid_es_energy:           -7.852123
##########           Internal_energy_repulsive:           26.210022

@<TRIPOS>MOLECULE
ZINC001596273020
 58 59 1 0 0
SMALL
USER_CHARGES


@<TRIPOS>ATOM
      1 C1         -6.0896    2.2418   51.0978 C.3     1  ZINC001596273020   -0.1900
      2 C2         -7.4977    2.4492   51.6591 C.3     1  ZINC001596273020   -0.0200
      3 N3         -7.4604    3.4780   52.7071 N.4     1  ZINC001596273020   -0.3900
      4 H4         -6.8434    3.1810   53.4482 H       1  ZINC001596273020    0.4300
      5 C5         -6.9694    4.7398   52.1374 C.3     1  ZINC001596273020   -0.0100
      6 C6         -7.9051    5.1902   51.0138 C.3     1  ZINC001596273020   -0.1900
      7 C7         -8.8124    3.6772   53.2460 C.3     1  ZINC001596273020   -0.0100
      8 C8         -8.7760    4.7583   54.3281 C.3     1  ZINC001596273020    0.0300
      9 O9        -10.0873    4.9368   54.8673 O.3     1  ZINC001596273020   -0.3900
     10 C10       -10.3640    4.1183   56.0056 C.3     1  ZINC001596273020    0.0500
     11 C11       -11.4170    3.0713   55.6370 C.3     1  ZINC001596273020    0.1400
     12 N12       -11.8749    2.3908   56.8508 N.am    1  ZINC001596273020   -0.7500
     13 C13       -12.5672    1.2383   56.7569 C.2     1  ZINC001596273020    0.7200
     14 O14       -12.8131    0.7641   55.6646 O.2     1  ZINC001596273020   -0.6000
     15 N15       -12.9871    0.6115   57.8736 N.am    1  ZINC001596273020   -0.6300
     16 C16       -13.7481   -0.6586   57.9716 C.3     1  ZINC001596273020    0.1100
     17 C17       -13.0767   -1.3953   59.1664 C.3     1  ZINC001596273020   -0.0800
     18 H18       -13.8200   -1.9916   59.6956 H       1  ZINC001596273020    0.1200
     19 C19       -12.0036   -2.3022   58.5980 C.3     1  ZINC001596273020   -0.1000
     20 C20       -10.8421   -2.5182   59.5580 C.3     1  ZINC001596273020   -0.1200
     21 C21       -10.2353   -1.1476   59.8862 C.3     1  ZINC001596273020   -0.1200
     22 C22       -11.2568   -0.3780   60.7173 C.3     1  ZINC001596273020   -0.0800
     23 C23       -12.5922   -0.2739   60.0589 C.3     1  ZINC001596273020   -0.1400
     24 C24       -13.5962   -0.1960   61.1800 C.2     1  ZINC001596273020    0.5000
     25 O25       -13.2370    0.1304   62.2985 O.co2   1  ZINC001596273020   -0.6900
     26 O26       -14.7677   -0.4596   60.9687 O.co2   1  ZINC001596273020   -0.6900
     27 C27       -12.7871    1.0324   59.2817 C.3     1  ZINC001596273020    0.1600
     28 H28        -5.7694    3.1442   50.5771 H       1  ZINC001596273020    0.0800
     29 H29        -5.4002    2.0300   51.9151 H       1  ZINC001596273020    0.0800
     30 H30        -6.0960    1.4033   50.4014 H       1  ZINC001596273020    0.1000
     31 H31        -8.1643    2.7700   50.8586 H       1  ZINC001596273020    0.1300
     32 H32        -7.8619    1.5129   52.0819 H       1  ZINC001596273020    0.1300
     33 H33        -6.9416    5.5031   52.9150 H       1  ZINC001596273020    0.1300
     34 H34        -5.9663    4.5919   51.7375 H       1  ZINC001596273020    0.1300
     35 H35        -7.8484    4.4813   50.1877 H       1  ZINC001596273020    0.0800
     36 H36        -8.9281    5.2316   51.3876 H       1  ZINC001596273020    0.0800
     37 H37        -7.6051    6.1787   50.6655 H       1  ZINC001596273020    0.1000
     38 H38        -9.4811    3.9886   52.4436 H       1  ZINC001596273020    0.1400
     39 H39        -9.1728    2.7433   53.6775 H       1  ZINC001596273020    0.1400
     40 H40        -8.0947    4.4542   55.1227 H       1  ZINC001596273020    0.1000
     41 H41        -8.4312    5.6963   53.8931 H       1  ZINC001596273020    0.0700
     42 H42        -9.4496    3.6176   56.3239 H       1  ZINC001596273020    0.0700
     43 H43       -10.7392    4.7407   56.8179 H       1  ZINC001596273020    0.0700
     44 H44       -12.2625    3.5609   55.1539 H       1  ZINC001596273020    0.0900
     45 H45       -10.9808    2.3421   54.9542 H       1  ZINC001596273020    0.0700
     46 H46       -11.6798    2.7697   57.7222 H       1  ZINC001596273020    0.3900
     47 H47       -14.7987   -0.4609   58.1844 H       1  ZINC001596273020    0.0700
     48 H48       -13.6440   -1.2397   57.0554 H       1  ZINC001596273020    0.0600
     49 H49       -12.4490   -3.2687   58.3623 H       1  ZINC001596273020    0.0500
     50 H50       -11.6214   -1.8602   57.6779 H       1  ZINC001596273020    0.0400
     51 H51       -11.2027   -2.9898   60.4721 H       1  ZINC001596273020    0.0700
     52 H52       -10.0893   -3.1514   59.0885 H       1  ZINC001596273020    0.0500
     53 H53        -9.3161   -1.2775   60.4576 H       1  ZINC001596273020    0.0600
     54 H54       -10.0251   -0.6058   58.9641 H       1  ZINC001596273020    0.0500
     55 H55       -11.3766   -0.8802   61.6774 H       1  ZINC001596273020    0.0600
     56 H56       -10.8758    0.6275   60.8965 H       1  ZINC001596273020    0.0600
     57 H57       -11.9030    1.6635   59.3717 H       1  ZINC001596273020    0.0700
     58 H58       -13.6701    1.5605   59.6419 H       1  ZINC001596273020    0.0700
@<TRIPOS>BOND
     1     1     2    1
     2     1    28    1
     3     1    29    1
     4     1    30    1
     5     2     3    1
     6     2    31    1
     7     2    32    1
     8     3     4    1
     9     3     5    1
    10     3     7    1
    11     5     6    1
    12     5    33    1
    13     5    34    1
    14     6    35    1
    15     6    36    1
    16     6    37    1
    17     7     8    1
    18     7    38    1
    19     7    39    1
    20     8     9    1
    21     8    40    1
    22     8    41    1
    23     9    10    1
    24    10    11    1
    25    10    42    1
    26    10    43    1
    27    11    12    1
    28    11    44    1
    29    11    45    1
    30    12    13   am
    31    12    46    1
    32    13    14    2
    33    13    15   am
    34    15    27    1
    35    15    16    1
    36    16    17    1
    37    16    47    1
    38    16    48    1
    39    17    18    1
    40    17    23    1
    41    17    19    1
    42    19    20    1
    43    19    49    1
    44    19    50    1
    45    20    21    1
    46    20    51    1
    47    20    52    1
    48    21    22    1
    49    21    53    1
    50    21    54    1
    51    22    23    1
    52    22    55    1
    53    22    56    1
    54    23    24    1
    55    23    27    1
    56    24    25   ar
    57    24    26   ar
    58    27    57    1
    59    27    58    1
@<TRIPOS>SUBSTRUCTURE
     1 ZINC001596273020        1 TEMP              0 ****  ****    0 ROOT


##########                                Name:    ZINC001289410668
##########                DOCK_Rotatable_Bonds:                  11
##########                         Heavy_Atoms:                  26
##########                    Molecular_Weight:             362.515
##########                DOCK_Rotatable_Bonds:                  11
##########                       Formal_Charge:          -0.0400008
##########                     HBond_Acceptors:                   6
##########                        HBond_Donors:                   1
##########                         Heavy_Atoms:                  26
##########                          Grid_Score:          -31.748642
##########                     Grid_vdw_energy:          -27.322233
##########                      Grid_es_energy:           -4.426409
##########           Internal_energy_repulsive:           26.134838

@<TRIPOS>MOLECULE
ZINC001289410668
 60 61 1 0 0
SMALL
USER_CHARGES


@<TRIPOS>ATOM
      1 C1        -15.0193   -1.0274   53.7590 C.3     1  ZINC001289410668   -0.1500
      2 C2        -15.7653   -1.6326   54.9499 C.3     1  ZINC001289410668   -0.1300
      3 C3        -15.0895   -1.1949   56.2509 C.3     1  ZINC001289410668   -0.1200
      4 C4        -15.8359   -1.7995   57.4418 C.3     1  ZINC001289410668   -0.1200
      5 C5        -15.8060   -3.3258   57.3409 C.3     1  ZINC001289410668   -0.1100
      6 C6        -14.3545   -3.8095   57.3521 C.3     1  ZINC001289410668   -0.1400
      7 C7        -13.6911   -3.3778   58.6345 C.2     1  ZINC001289410668    0.5100
      8 O8        -14.2188   -3.6156   59.7002 O.2     1  ZINC001289410668   -0.5300
      9 N9        -12.5112   -2.7273   58.5970 N.am    1  ZINC001289410668   -0.7200
     10 C10       -11.8671   -2.3061   59.8436 C.3     1  ZINC001289410668    0.1400
     11 H11       -11.8457   -3.1228   60.5652 H       1  ZINC001289410668    0.1100
     12 C12       -12.5685   -1.0590   60.4371 C.3     1  ZINC001289410668    0.0800
     13 N13       -11.5363   -0.4004   61.2583 N.am    1  ZINC001289410668   -0.6200
     14 C14       -11.7682    0.4230   62.2997 C.2     1  ZINC001289410668    0.5100
     15 O15       -12.9072    0.6781   62.6292 O.2     1  ZINC001289410668   -0.5100
     16 C16       -10.6121    1.0270   63.0546 C.3     1  ZINC001289410668    0.0900
     17 N17       -10.9780    2.3682   63.5168 N.pl3   1  ZINC001289410668   -0.4500
     18 C18       -11.2037    2.7473   64.8126 C.2     1  ZINC001289410668   -0.0500
     19 C19       -11.5105    4.0584   64.7871 C.2     1  ZINC001289410668   -0.0200
     20 N20       -11.4731    4.4685   63.5106 N.2     1  ZINC001289410668   -0.4800
     21 C21       -11.1499    3.4627   62.7446 C.2     1  ZINC001289410668    0.2300
     22 C22       -11.0022    3.5121   61.2457 C.3     1  ZINC001289410668   -0.0100
     23 C23       -11.9427    4.5756   60.6753 C.3     1  ZINC001289410668   -0.1400
     24 C24        -9.5571    3.8640   60.8870 C.3     1  ZINC001289410668   -0.1400
     25 C25       -10.2119   -0.7914   60.7534 C.3     1  ZINC001289410668    0.1100
     26 C26       -10.4386   -1.7632   59.5755 C.3     1  ZINC001289410668   -0.1100
     27 H27       -10.4007   -1.2318   58.6245 H       1  ZINC001289410668    0.0900
     28 C28        -9.4097   -2.8952   59.6021 C.3     1  ZINC001289410668   -0.1400
     29 H29       -15.5007   -1.3393   52.8322 H       1  ZINC001289410668    0.0500
     30 H30       -15.0405    0.0599   53.8316 H       1  ZINC001289410668    0.0500
     31 H31       -13.9851   -1.3718   53.7651 H       1  ZINC001289410668    0.0500
     32 H32       -16.7995   -1.2882   54.9439 H       1  ZINC001289410668    0.0600
     33 H33       -15.7441   -2.7200   54.8774 H       1  ZINC001289410668    0.0600
     34 H34       -14.0555   -1.5397   56.2571 H       1  ZINC001289410668    0.0600
     35 H35       -15.1104   -0.1075   56.3232 H       1  ZINC001289410668    0.0600
     36 H36       -15.3547   -1.4872   58.3687 H       1  ZINC001289410668    0.0600
     37 H37       -16.8700   -1.4551   57.4354 H       1  ZINC001289410668    0.0600
     38 H38       -16.3391   -3.7565   58.1886 H       1  ZINC001289410668    0.0700
     39 H39       -16.2859   -3.6382   56.4135 H       1  ZINC001289410668    0.0700
     40 H40       -14.3334   -4.8969   57.2802 H       1  ZINC001289410668    0.1000
     41 H41       -13.8215   -3.3788   56.5044 H       1  ZINC001289410668    0.1000
     42 H42       -12.0886   -2.5381   57.7447 H       1  ZINC001289410668    0.4000
     43 H43       -12.8996   -0.3942   59.6392 H       1  ZINC001289410668    0.0800
     44 H44       -13.4131   -1.3582   61.0578 H       1  ZINC001289410668    0.0800
     45 H45       -10.3716    0.3999   63.9132 H       1  ZINC001289410668    0.1200
     46 H46        -9.7444    1.0930   62.3983 H       1  ZINC001289410668    0.1200
     47 H47       -11.1470    2.1162   65.6872 H       1  ZINC001289410668    0.1700
     48 H48       -11.7454    4.6719   65.6443 H       1  ZINC001289410668    0.1700
     49 H49       -11.2548    2.5395   60.8234 H       1  ZINC001289410668    0.0700
     50 H50       -11.6901    5.5482   61.0976 H       1  ZINC001289410668    0.0700
     51 H51       -11.8359    4.6113   59.5912 H       1  ZINC001289410668    0.0600
     52 H52       -12.9722    4.3248   60.9309 H       1  ZINC001289410668    0.0500
     53 H53        -9.3045    4.8367   61.3092 H       1  ZINC001289410668    0.0700
     54 H54        -8.8870    3.1064   61.2933 H       1  ZINC001289410668    0.0600
     55 H55        -9.4501    3.8998   59.8028 H       1  ZINC001289410668    0.0600
     56 H56        -9.6716    0.0900   60.4086 H       1  ZINC001289410668    0.0800
     57 H57        -9.6474   -1.2902   61.5412 H       1  ZINC001289410668    0.0800
     58 H58        -9.4843   -3.4319   60.5479 H       1  ZINC001289410668    0.0600
     59 H59        -9.6040   -3.5822   58.7784 H       1  ZINC001289410668    0.0600
     60 H60        -8.4079   -2.4783   59.4989 H       1  ZINC001289410668    0.0700
@<TRIPOS>BOND
     1     1     2    1
     2     1    29    1
     3     1    30    1
     4     1    31    1
     5     2     3    1
     6     2    32    1
     7     2    33    1
     8     3     4    1
     9     3    34    1
    10     3    35    1
    11     4     5    1
    12     4    36    1
    13     4    37    1
    14     5     6    1
    15     5    38    1
    16     5    39    1
    17     6     7    1
    18     6    40    1
    19     6    41    1
    20     7     8    2
    21     7     9   am
    22     9    10    1
    23     9    42    1
    24    10    11    1
    25    10    26    1
    26    10    12    1
    27    12    13    1
    28    12    43    1
    29    12    44    1
    30    13    14   am
    31    13    25    1
    32    14    15    2
    33    14    16    1
    34    16    17    1
    35    16    45    1
    36    16    46    1
    37    17    21    1
    38    17    18    1
    39    18    19    2
    40    18    47    1
    41    19    20    1
    42    19    48    1
    43    20    21    2
    44    21    22    1
    45    22    23    1
    46    22    24    1
    47    22    49    1
    48    23    50    1
    49    23    51    1
    50    23    52    1
    51    24    53    1
    52    24    54    1
    53    24    55    1
    54    25    26    1
    55    25    56    1
    56    25    57    1
    57    26    27    1
    58    26    28    1
    59    28    58    1
    60    28    59    1
    61    28    60    1
@<TRIPOS>SUBSTRUCTURE
     1 ZINC001289410668        1 TEMP              0 ****  ****    0 ROOT


##########                                Name:    ZINC001004075025
##########                DOCK_Rotatable_Bonds:                   8
##########                         Heavy_Atoms:                  25
##########                    Molecular_Weight:              349.43
##########                DOCK_Rotatable_Bonds:                   8
##########                       Formal_Charge:         -0.00999999
##########                     HBond_Acceptors:                   7
##########                        HBond_Donors:                   1
##########                         Heavy_Atoms:                  25
##########                          Grid_Score:          -31.715082
##########                     Grid_vdw_energy:          -29.699928
##########                      Grid_es_energy:           -2.015154
##########           Internal_energy_repulsive:            9.652107

@<TRIPOS>MOLECULE
ZINC001004075025
 52 54 1 0 0
SMALL
USER_CHARGES


@<TRIPOS>ATOM
      1 C1          1.8722   -0.3104   61.9424 C.3     1  ZINC001004075025   -0.1500
      2 C2          0.3891    0.0463   61.8227 C.3     1  ZINC001004075025   -0.1200
      3 C3          0.2330    1.2892   60.9442 C.3     1  ZINC001004075025    0.0800
      4 H4          0.7366    2.1408   61.4016 H       1  ZINC001004075025    0.0700
      5 C5          0.8051    1.0227   59.5290 C.3     1  ZINC001004075025   -0.1500
      6 C6          0.0040    2.0539   58.6882 C.3     1  ZINC001004075025   -0.1400
      7 C7         -1.3623    2.0719   59.4069 C.3     1  ZINC001004075025    0.0700
      8 H8         -2.0659    1.4276   58.8798 H       1  ZINC001004075025    0.1100
      9 C9         -1.8961    3.4803   59.4550 C.2     1  ZINC001004075025    0.5300
     10 O10        -1.5264    4.2396   60.3254 O.2     1  ZINC001004075025   -0.5200
     11 N11        -2.7846    3.8962   58.5307 N.am    1  ZINC001004075025   -0.6500
     12 C12        -3.4595    3.3009   57.3676 C.3     1  ZINC001004075025    0.1100
     13 C13        -3.5567    4.7116   56.7703 C.3     1  ZINC001004075025   -0.1400
     14 C14        -4.8867    5.0078   56.0744 C.3     1  ZINC001004075025    0.1300
     15 N15        -5.0208    4.1520   54.8930 N.am    1  ZINC001004075025   -0.7200
     16 C16        -5.6055    4.6307   53.7769 C.2     1  ZINC001004075025    0.6000
     17 O17        -6.0204    5.7735   53.7503 O.2     1  ZINC001004075025   -0.5300
     18 C18        -5.7420    3.7691   52.5888 C.2     1  ZINC001004075025   -0.2700
     19 C19        -6.6758    3.8381   51.5838 C.2     1  ZINC001004075025    0.0700
     20 C20        -7.8012    4.8330   51.4631 C.3     1  ZINC001004075025   -0.0300
     21 C21        -8.3629    4.7973   50.0403 C.3     1  ZINC001004075025   -0.1500
     22 C22        -8.9076    4.4747   52.4573 C.3     1  ZINC001004075025   -0.1500
     23 O23        -6.3881    2.8485   50.7353 O.3     1  ZINC001004075025    0.1000
     24 N24        -5.4298    2.1976   51.0728 N.2     1  ZINC001004075025   -0.3500
     25 C25        -4.9080    2.6272   52.1834 C.2     1  ZINC001004075025    0.0200
     26 C26        -3.5106    5.1429   58.2454 C.3     1  ZINC001004075025    0.1100
     27 O27        -1.1580    1.5836   60.7394 O.3     1  ZINC001004075025   -0.3400
     28 H28         1.9835   -1.1959   62.5684 H       1  ZINC001004075025    0.0600
     29 H29         2.2784   -0.5125   60.9514 H       1  ZINC001004075025    0.0500
     30 H30         2.4112    0.5231   62.3930 H       1  ZINC001004075025    0.0600
     31 H31        -0.1498   -0.7872   61.3722 H       1  ZINC001004075025    0.0800
     32 H32        -0.0170    0.2485   62.8138 H       1  ZINC001004075025    0.0700
     33 H33         1.8743    1.2314   59.4919 H       1  ZINC001004075025    0.0900
     34 H34         0.5942    0.0035   59.2056 H       1  ZINC001004075025    0.0900
     35 H35         0.4755    3.0358   58.7267 H       1  ZINC001004075025    0.0800
     36 H36        -0.1041    1.7143   57.6582 H       1  ZINC001004075025    0.0900
     37 H37        -2.8222    2.6291   56.7927 H       1  ZINC001004075025    0.0900
     38 H38        -4.4287    2.8625   57.6055 H       1  ZINC001004075025    0.0900
     39 H39        -2.6877    5.0093   56.1836 H       1  ZINC001004075025    0.1100
     40 H40        -5.7088    4.8091   56.7621 H       1  ZINC001004075025    0.0800
     41 H41        -4.9124    6.0541   55.7700 H       1  ZINC001004075025    0.0800
     42 H42        -4.6888    3.2408   54.9139 H       1  ZINC001004075025    0.4000
     43 H43        -7.4269    5.8332   51.6810 H       1  ZINC001004075025    0.1300
     44 H44        -8.7373    3.7972   49.8224 H       1  ZINC001004075025    0.0600
     45 H45        -9.1770    5.5170   49.9530 H       1  ZINC001004075025    0.0700
     46 H46        -7.5748    5.0527   49.3320 H       1  ZINC001004075025    0.0600
     47 H47        -9.2819    3.4744   52.2394 H       1  ZINC001004075025    0.0600
     48 H48        -8.5074    4.5000   53.4709 H       1  ZINC001004075025    0.0600
     49 H49        -9.7216    5.1942   52.3699 H       1  ZINC001004075025    0.0700
     50 H50        -4.0492    2.2267   52.7016 H       1  ZINC001004075025    0.2000
     51 H51        -4.4935    5.1937   58.7138 H       1  ZINC001004075025    0.0900
     52 H52        -2.9144    6.0391   58.4172 H       1  ZINC001004075025    0.0800
@<TRIPOS>BOND
     1     1     2    1
     2     1    28    1
     3     1    29    1
     4     1    30    1
     5     2     3    1
     6     2    31    1
     7     2    32    1
     8     3     4    1
     9     3    27    1
    10     3     5    1
    11     5     6    1
    12     5    33    1
    13     5    34    1
    14     6     7    1
    15     6    35    1
    16     6    36    1
    17     7     8    1
    18     7     9    1
    19     7    27    1
    20     9    10    2
    21     9    11   am
    22    11    26    1
    23    11    12    1
    24    12    13    1
    25    12    37    1
    26    12    38    1
    27    13    14    1
    28    13    26    1
    29    13    39    1
    30    14    15    1
    31    14    40    1
    32    14    41    1
    33    15    16   am
    34    15    42    1
    35    16    17    2
    36    16    18    1
    37    18    25    1
    38    18    19    2
    39    19    20    1
    40    19    23    1
    41    20    21    1
    42    20    22    1
    43    20    43    1
    44    21    44    1
    45    21    45    1
    46    21    46    1
    47    22    47    1
    48    22    48    1
    49    22    49    1
    50    23    24    1
    51    24    25    2
    52    25    50    1
    53    26    51    1
    54    26    52    1
@<TRIPOS>SUBSTRUCTURE
     1 ZINC001004075025        1 TEMP              0 ****  ****    0 ROOT


##########                                Name:    ZINC001083519372
##########                DOCK_Rotatable_Bonds:                   7
##########                         Heavy_Atoms:                  27
##########                    Molecular_Weight:             370.411
##########                DOCK_Rotatable_Bonds:                   7
##########                       Formal_Charge:           0.0399996
##########                     HBond_Acceptors:                   9
##########                        HBond_Donors:                   2
##########                         Heavy_Atoms:                  27
##########                          Grid_Score:          -31.714037
##########                     Grid_vdw_energy:          -31.139549
##########                      Grid_es_energy:           -0.574487
##########           Internal_energy_repulsive:            7.827709

@<TRIPOS>MOLECULE
ZINC001083519372
 49 52 1 0 0
SMALL
USER_CHARGES


@<TRIPOS>ATOM
      1 C1         -8.3200    4.1187   67.4546 C.3     1  ZINC001083519372   -0.1500
      2 C2         -7.9203    3.7130   66.0346 C.3     1  ZINC001083519372   -0.0100
      3 C3         -6.5539    4.3135   65.6981 C.3     1  ZINC001083519372   -0.1500
      4 C4         -7.8448    2.2106   65.9438 C.2     1  ZINC001083519372   -0.0100
      5 C5         -8.8455    1.3802   65.6069 C.2     1  ZINC001083519372   -0.0100
      6 C6        -10.2530    1.7829   65.2494 C.3     1  ZINC001083519372    0.1300
      7 N7        -10.3298    2.0694   63.8107 N.3     1  ZINC001083519372   -0.5000
      8 C8         -9.9112    0.8904   63.0100 C.3     1  ZINC001083519372    0.0300
      9 C9        -10.5376    1.1654   61.6200 C.3     1  ZINC001083519372    0.1500
     10 H10        -9.9199    1.8583   61.0486 H       1  ZINC001083519372    0.1200
     11 N11       -10.7294   -0.0852   60.8813 N.am    1  ZINC001083519372   -0.6900
     12 C12        -9.7460   -0.5583   60.0904 C.2     1  ZINC001083519372    0.5600
     13 O13        -8.6991    0.0521   59.9910 O.2     1  ZINC001083519372   -0.5100
     14 C14        -9.9397   -1.8164   59.3453 C.2     1  ZINC001083519372    0.1400
     15 C15        -8.9798   -2.7922   59.3634 C.2     1  ZINC001083519372   -0.1500
     16 C16        -9.1933   -3.9763   58.6452 C.2     1  ZINC001083519372    0.1800
     17 N17       -10.2996   -4.1499   57.9628 N.2     1  ZINC001083519372   -0.4400
     18 C18       -11.2490   -3.2090   57.9325 C.2     1  ZINC001083519372    0.2500
     19 C19       -12.4865   -3.1416   57.3015 C.2     1  ZINC001083519372   -0.2500
     20 C20       -13.0543   -1.9189   57.6192 C.2     1  ZINC001083519372    0.1000
     21 N21       -12.2314   -1.2538   58.4005 N.2     1  ZINC001083519372   -0.3100
     22 N22       -11.0912   -2.0332   58.6235 N.pl3   1  ZINC001083519372   -0.3100
     23 C23       -11.8974    1.8096   61.9749 C.3     1  ZINC001083519372    0.0900
     24 H24       -12.1247    2.6196   61.2817 H       1  ZINC001083519372    0.0800
     25 O25       -12.9346    0.8270   61.9455 O.3     1  ZINC001083519372   -0.5600
     26 C26       -11.7210    2.3611   63.4018 C.3     1  ZINC001083519372    0.0100
     27 N27        -8.3648    0.1249   65.6459 N.2     1  ZINC001083519372   -0.4800
     28 C28        -7.1104    0.1686   65.9942 C.2     1  ZINC001083519372    0.1700
     29 O29        -6.7591    1.4480   66.1798 O.3     1  ZINC001083519372   -0.2000
     30 H30        -9.2934    3.6908   67.6944 H       1  ZINC001083519372    0.0600
     31 H31        -7.5767    3.7489   68.1610 H       1  ZINC001083519372    0.0600
     32 H32        -8.3747    5.2053   67.5203 H       1  ZINC001083519372    0.0700
     33 H33        -8.6635    4.0827   65.3283 H       1  ZINC001083519372    0.1000
     34 H34        -5.8106    3.9438   66.4044 H       1  ZINC001083519372    0.0600
     35 H35        -6.2692    4.0245   64.6865 H       1  ZINC001083519372    0.0600
     36 H36        -6.6085    5.4002   65.7638 H       1  ZINC001083519372    0.0700
     37 H37       -10.9369    0.9706   65.4952 H       1  ZINC001083519372    0.0900
     38 H38       -10.5300    2.6741   65.8127 H       1  ZINC001083519372    0.0600
     39 H39        -8.8246    0.8398   62.9392 H       1  ZINC001083519372    0.1000
     40 H40       -10.3130   -0.0277   63.4384 H       1  ZINC001083519372    0.0600
     41 H41       -11.5641   -0.5728   60.9615 H       1  ZINC001083519372    0.4300
     42 H42        -8.0680   -2.6507   59.9246 H       1  ZINC001083519372    0.1800
     43 H43        -8.4412   -4.7515   58.6535 H       1  ZINC001083519372    0.1900
     44 H44       -12.9255   -3.9049   56.6762 H       1  ZINC001083519372    0.1700
     45 H45       -14.0177   -1.5681   57.2799 H       1  ZINC001083519372    0.2000
     46 H46       -12.7562    0.0504   62.4933 H       1  ZINC001083519372    0.3900
     47 H47       -12.4182    1.8681   64.0793 H       1  ZINC001083519372    0.0700
     48 H48       -11.8918    3.4375   63.4077 H       1  ZINC001083519372    0.0900
     49 H49        -6.4598   -0.6855   66.1103 H       1  ZINC001083519372    0.2500
@<TRIPOS>BOND
     1     1     2    1
     2     1    30    1
     3     1    31    1
     4     1    32    1
     5     2     3    1
     6     2     4    1
     7     2    33    1
     8     3    34    1
     9     3    35    1
    10     3    36    1
    11     4    29    1
    12     4     5    2
    13     5     6    1
    14     5    27    1
    15     6     7    1
    16     6    37    1
    17     6    38    1
    18     7    26    1
    19     7     8    1
    20     8     9    1
    21     8    39    1
    22     8    40    1
    23     9    10    1
    24     9    11    1
    25     9    23    1
    26    11    12   am
    27    11    41    1
    28    12    13    2
    29    12    14    1
    30    14    22    1
    31    14    15    2
    32    15    16    1
    33    15    42    1
    34    16    17    2
    35    16    43    1
    36    17    18    1
    37    18    22    1
    38    18    19    2
    39    19    20    1
    40    19    44    1
    41    20    21    2
    42    20    45    1
    43    21    22    1
    44    23    24    1
    45    23    25    1
    46    23    26    1
    47    25    46    1
    48    26    47    1
    49    26    48    1
    50    27    28    2
    51    28    29    1
    52    28    49    1
@<TRIPOS>SUBSTRUCTURE
     1 ZINC001083519372        1 TEMP              0 ****  ****    0 ROOT


##########                                Name:    ZINC000434204837
##########                DOCK_Rotatable_Bonds:                   7
##########                         Heavy_Atoms:                  29
##########                    Molecular_Weight:             406.511
##########                DOCK_Rotatable_Bonds:                   7
##########                       Formal_Charge:          -0.0200002
##########                     HBond_Acceptors:                   8
##########                        HBond_Donors:                   0
##########                         Heavy_Atoms:                  29
##########                          Grid_Score:          -31.650791
##########                     Grid_vdw_energy:          -31.376402
##########                      Grid_es_energy:           -0.274390
##########           Internal_energy_repulsive:           14.201823

@<TRIPOS>MOLECULE
ZINC000434204837
 51 54 1 0 0
SMALL
USER_CHARGES


@<TRIPOS>ATOM
      1 C1        -14.5304   -0.3003   52.4265 C.3     1  ZINC000434204837   -0.1300
      2 C2        -13.5347    0.7418   52.8667 C.ar    1  ZINC000434204837   -0.0700
      3 C3        -12.6445    1.2759   51.9543 C.ar    1  ZINC000434204837   -0.1200
      4 C4        -11.7310    2.2319   52.3581 C.ar    1  ZINC000434204837   -0.1100
      5 C5        -11.7082    2.6538   53.6741 C.ar    1  ZINC000434204837   -0.1300
      6 C6        -12.5994    2.1202   54.5866 C.ar    1  ZINC000434204837   -0.0900
      7 C7        -13.5155    1.1676   54.1819 C.ar    1  ZINC000434204837   -0.1000
      8 C8        -14.4868    0.5859   55.1765 C.3     1  ZINC000434204837    0.0100
      9 C9        -13.8818   -0.6393   55.8120 C.2     1  ZINC000434204837    0.2000
     10 N10       -14.2425   -1.1896   56.9463 N.2     1  ZINC000434204837   -0.4600
     11 C11       -13.4306   -2.2494   57.1089 C.2     1  ZINC000434204837    0.1700
     12 C12       -13.4443   -3.2142   58.2664 C.3     1  ZINC000434204837   -0.0300
     13 S13       -12.5686   -2.4830   59.6717 S.3     1  ZINC000434204837    0.0900
     14 C14       -10.9026   -2.6987   59.1398 C.2     1  ZINC000434204837    0.2100
     15 N15       -10.4754   -3.5493   58.2316 N.2     1  ZINC000434204837   -0.3300
     16 N16        -9.2039   -3.4481   58.0830 N.2     1  ZINC000434204837   -0.0200
     17 N17        -8.7302   -2.5431   58.8691 N.2     1  ZINC000434204837   -0.0700
     18 N18        -9.8186   -2.0149   59.5852 N.pl3   1  ZINC000434204837   -0.3100
     19 C19        -9.7892   -1.0042   60.5567 C.ar    1  ZINC000434204837    0.1100
     20 C20       -10.5728    0.1314   60.4029 C.ar    1  ZINC000434204837   -0.1100
     21 C21       -10.5420    1.1252   61.3618 C.ar    1  ZINC000434204837   -0.0900
     22 C22        -9.7314    0.9898   62.4738 C.ar    1  ZINC000434204837   -0.0600
     23 C23        -9.7002    2.0758   63.5182 C.3     1  ZINC000434204837   -0.0600
     24 C24        -9.1987    3.3762   62.8869 C.3     1  ZINC000434204837   -0.1500
     25 C25       -11.1095    2.2892   64.0743 C.3     1  ZINC000434204837   -0.1500
     26 C26        -8.9498   -0.1402   62.6298 C.ar    1  ZINC000434204837   -0.1000
     27 C27        -8.9806   -1.1397   61.6771 C.ar    1  ZINC000434204837   -0.0900
     28 N28       -12.6324   -2.2889   56.0842 N.2     1  ZINC000434204837   -0.3600
     29 O29       -12.8789   -1.3759   55.3245 O.3     1  ZINC000434204837    0.0900
     30 H30       -15.4443    0.1894   52.0903 H       1  ZINC000434204837    0.0800
     31 H31       -14.1084   -0.8832   51.6078 H       1  ZINC000434204837    0.0700
     32 H32       -14.7587   -0.9609   53.2630 H       1  ZINC000434204837    0.0700
     33 H33       -12.6622    0.9462   50.9260 H       1  ZINC000434204837    0.1300
     34 H34       -11.0348    2.6487   51.6453 H       1  ZINC000434204837    0.1200
     35 H35       -10.9942    3.4001   53.9897 H       1  ZINC000434204837    0.1300
     36 H36       -12.5814    2.4496   55.6149 H       1  ZINC000434204837    0.1300
     37 H37       -14.7041    1.3254   55.9473 H       1  ZINC000434204837    0.1200
     38 H38       -15.4097    0.3119   54.6654 H       1  ZINC000434204837    0.1200
     39 H39       -14.4750   -3.4259   58.5510 H       1  ZINC000434204837    0.1300
     40 H40       -12.9508   -4.1407   57.9730 H       1  ZINC000434204837    0.1400
     41 H41       -11.2056    0.2379   59.5342 H       1  ZINC000434204837    0.1400
     42 H42       -11.1514    2.0087   61.2427 H       1  ZINC000434204837    0.1400
     43 H43        -9.0309    1.7829   64.3270 H       1  ZINC000434204837    0.0800
     44 H44        -9.8681    3.6691   62.0780 H       1  ZINC000434204837    0.0600
     45 H45        -9.1762    4.1617   63.6423 H       1  ZINC000434204837    0.0600
     46 H46        -8.1947    3.2242   62.4907 H       1  ZINC000434204837    0.0600
     47 H47       -11.4668    1.3628   64.5241 H       1  ZINC000434204837    0.0600
     48 H48       -11.0869    3.0747   64.8297 H       1  ZINC000434204837    0.0600
     49 H49       -11.7787    2.5822   63.2655 H       1  ZINC000434204837    0.0600
     50 H50        -8.3173   -0.2428   63.4992 H       1  ZINC000434204837    0.1400
     51 H51        -8.3699   -2.0220   61.7994 H       1  ZINC000434204837    0.1400
@<TRIPOS>BOND
     1     1     2    1
     2     1    30    1
     3     1    31    1
     4     1    32    1
     5     2     7   ar
     6     2     3   ar
     7     3     4   ar
     8     3    33    1
     9     4     5   ar
    10     4    34    1
    11     5     6   ar
    12     5    35    1
    13     6     7   ar
    14     6    36    1
    15     7     8    1
    16     8     9    1
    17     8    37    1
    18     8    38    1
    19     9    29    1
    20     9    10    2
    21    10    11    1
    22    11    12    1
    23    11    28    2
    24    12    13    1
    25    12    39    1
    26    12    40    1
    27    13    14    1
    28    14    18    1
    29    14    15    2
    30    15    16    1
    31    16    17    2
    32    17    18    1
    33    18    19    1
    34    19    27   ar
    35    19    20   ar
    36    20    21   ar
    37    20    41    1
    38    21    22   ar
    39    21    42    1
    40    22    23    1
    41    22    26   ar
    42    23    24    1
    43    23    25    1
    44    23    43    1
    45    24    44    1
    46    24    45    1
    47    24    46    1
    48    25    47    1
    49    25    48    1
    50    25    49    1
    51    26    27   ar
    52    26    50    1
    53    27    51    1
    54    28    29    1
@<TRIPOS>SUBSTRUCTURE
     1 ZINC000434204837        1 TEMP              0 ****  ****    0 ROOT


##########                                Name:    ZINC000291036115
##########                DOCK_Rotatable_Bonds:                   5
##########                         Heavy_Atoms:                  22
##########                    Molecular_Weight:             366.193
##########                DOCK_Rotatable_Bonds:                   5
##########                       Formal_Charge:                0.01
##########                     HBond_Acceptors:                   7
##########                        HBond_Donors:                   0
##########                         Heavy_Atoms:                  22
##########                          Grid_Score:          -31.637968
##########                     Grid_vdw_energy:          -31.317701
##########                      Grid_es_energy:           -0.320267
##########           Internal_energy_repulsive:            6.086612

@<TRIPOS>MOLECULE
ZINC000291036115
 35 37 1 0 0
SMALL
USER_CHARGES


@<TRIPOS>ATOM
      1 C1        -10.4243    1.0125   60.9264 C.3     1  <0>        -0.1500
      2 C2        -10.4106   -0.4383   61.4122 C.3     1  <0>        -0.0400
      3 H3        -11.0510   -0.5339   62.2890 H       1  <0>         0.0900
      4 C4         -8.9805   -0.8398   61.7789 C.3     1  <0>        -0.0200
      5 C5         -8.7362   -0.5515   63.2377 C.2     1  <0>         0.1900
      6 N6         -8.4020    0.6039   63.7602 N.2     1  <0>        -0.4500
      7 C7         -8.2931    0.3853   65.0827 C.2     1  <0>         0.1500
      8 C8         -7.9275    1.4069   66.1285 C.3     1  <0>         0.2300
      9 N9         -6.4753    1.4100   66.3214 N.pl3   1  <0>        -0.3900
     10 C10        -5.7112    2.4595   66.6710 C.2     1  <0>         0.2600
     11 N11        -4.4696    2.0527   66.7398 N.2     1  <0>        -0.5400
     12 C12        -4.4019    0.7557   66.4422 C.2     1  <0>         0.2000
     13 N13        -5.6055    0.3160   66.1839 N.2     1  <0>        -0.3100
     14 N14        -8.5617   -0.8686   65.2933 N.2     1  <0>        -0.3600
     15 O15        -8.8245   -1.4231   64.2469 O.3     1  <0>         0.0900
     16 C16       -10.9202   -1.3395   60.3172 C.ar    1  <0>        -0.0900
     17 C17       -10.0562   -1.7937   59.3385 C.ar    1  <0>        -0.0700
     18 C18       -10.5220   -2.6208   58.3337 C.ar    1  <0>        -0.1400
     19 C19       -11.8544   -2.9945   58.3073 C.ar    1  <0>         0.1300
     20 F20       -12.3105   -3.8032   57.3259 F       1  <0>        -0.1200
     21 C21       -12.7200   -2.5389   59.2887 C.ar    1  <0>        -0.1300
     22 Br22      -14.5407   -3.0485   59.2553 Br      1  <0>        -0.0200
     23 C23       -12.2504   -1.7160   60.2956 C.ar    1  <0>        -0.0500
     24 H24       -10.0557    1.6644   61.7184 H       1  <0>         0.0600
     25 H25        -9.7840    1.1081   60.0496 H       1  <0>         0.0700
     26 H26       -11.4432    1.2985   60.6651 H       1  <0>         0.0700
     27 H27        -8.8426   -1.9046   61.5909 H       1  <0>         0.1200
     28 H28        -8.2763   -0.2696   61.1730 H       1  <0>         0.1100
     29 H29        -8.2526    2.3944   65.8011 H       1  <0>         0.1300
     30 H30        -8.4183    1.1560   67.0688 H       1  <0>         0.1200
     31 H31        -6.0612    3.4634   66.8612 H       1  <0>         0.2200
     32 H32        -3.4994    0.1628   66.4219 H       1  <0>         0.2200
     33 H33        -9.0166   -1.5018   59.3587 H       1  <0>         0.1400
     34 H34        -9.8465   -2.9751   57.5691 H       1  <0>         0.1500
     35 H35       -12.9246   -1.3605   61.0608 H       1  <0>         0.1400
@<TRIPOS>BOND
     1     1     2    1
     2     1    24    1
     3     1    25    1
     4     1    26    1
     5     2     3    1
     6     2     4    1
     7     2    16    1
     8     4     5    1
     9     4    27    1
    10     4    28    1
    11     5    15    1
    12     5     6    2
    13     6     7    1
    14     7     8    1
    15     7    14    2
    16     8     9    1
    17     8    29    1
    18     8    30    1
    19     9    13    1
    20     9    10    1
    21    10    11    2
    22    10    31    1
    23    11    12    1
    24    12    13    2
    25    12    32    1
    26    14    15    1
    27    16    23   ar
    28    16    17   ar
    29    17    18   ar
    30    17    33    1
    31    18    19   ar
    32    18    34    1
    33    19    20    1
    34    19    21   ar
    35    21    22    1
    36    21    23   ar
    37    23    35    1
@<TRIPOS>SUBSTRUCTURE
     1 <0>         1 TEMP              0 ****  ****    0 ROOT


##########                                Name:    ZINC000772422035
##########                DOCK_Rotatable_Bonds:                  10
##########                         Heavy_Atoms:                  25
##########                    Molecular_Weight:             348.399
##########                DOCK_Rotatable_Bonds:                  10
##########                       Formal_Charge:          0.00999987
##########                     HBond_Acceptors:                   7
##########                        HBond_Donors:                   0
##########                         Heavy_Atoms:                  25
##########                          Grid_Score:          -31.612614
##########                     Grid_vdw_energy:          -31.063099
##########                      Grid_es_energy:           -0.549516
##########           Internal_energy_repulsive:           15.074180

@<TRIPOS>MOLECULE
ZINC000772422035
 49 50 1 0 0
SMALL
USER_CHARGES


@<TRIPOS>ATOM
      1 C1         -4.7664    2.0793   51.6776 C.3     1  ZINC000772422035    0.0300
      2 O2         -5.6795    3.1044   51.2809 O.3     1  ZINC000772422035   -0.3900
      3 C3         -6.7955    3.2606   52.1595 C.3     1  ZINC000772422035    0.0600
      4 C4         -6.2954    3.6183   53.5605 C.3     1  ZINC000772422035    0.0700
      5 O5         -7.4113    3.7746   54.4392 O.3     1  ZINC000772422035   -0.3000
      6 C6         -7.1374    3.9885   55.7507 C.ar    1  ZINC000772422035    0.3300
      7 C7         -8.1803    4.1316   56.6566 C.ar    1  ZINC000772422035   -0.1700
      8 C8         -7.8874    4.3493   57.9918 C.ar    1  ZINC000772422035   -0.0200
      9 C9         -8.9900    4.5094   59.0066 C.3     1  ZINC000772422035    0.1100
     10 O10        -8.6651    3.7469   60.1987 O.3     1  ZINC000772422035   -0.3500
     11 C11        -9.5614    3.7664   61.1977 C.2     1  ZINC000772422035    0.4700
     12 O12       -10.6132    4.3436   61.0545 O.2     1  ZINC000772422035   -0.5000
     13 C13        -9.2559    3.0683   62.4978 C.3     1  ZINC000772422035   -0.1100
     14 C14       -10.1450    1.8305   62.6333 C.3     1  ZINC000772422035    0.0000
     15 H15       -10.6307    1.6259   61.6791 H       1  ZINC000772422035    0.1000
     16 C16       -11.2089    2.0813   63.7038 C.3     1  ZINC000772422035   -0.1500
     17 C17        -9.3011    0.6470   63.0313 C.2     1  ZINC000772422035   -0.2000
     18 C18        -8.5887    0.4761   64.1705 C.2     1  ZINC000772422035   -0.0200
     19 C19        -8.4752    1.4465   65.3178 C.3     1  ZINC000772422035   -0.0800
     20 O20        -8.0045   -0.7267   64.0759 O.3     1  ZINC000772422035    0.1000
     21 N21        -8.2829   -1.2754   63.0350 N.2     1  ZINC000772422035   -0.3600
     22 C22        -9.0748   -0.5445   62.3047 C.2     1  ZINC000772422035    0.0300
     23 C23        -9.6321   -0.8949   60.9491 C.3     1  ZINC000772422035   -0.0800
     24 C24        -6.5551    4.4165   58.3748 C.ar    1  ZINC000772422035   -0.1900
     25 C25        -5.5692    4.2652   57.4198 C.ar    1  ZINC000772422035    0.1400
     26 N26        -5.8797    4.0533   56.1551 N.ar    1  ZINC000772422035   -0.5300
     27 H27        -3.9480    2.0238   50.9597 H       1  ZINC000772422035    0.0900
     28 H28        -4.3680    2.3101   52.6656 H       1  ZINC000772422035    0.0400
     29 H29        -5.2866    1.1219   51.7102 H       1  ZINC000772422035    0.0400
     30 H30        -7.4405    4.0576   51.7895 H       1  ZINC000772422035    0.0600
     31 H31        -7.3582    2.3280   52.2017 H       1  ZINC000772422035    0.0700
     32 H32        -5.6504    2.8212   53.9305 H       1  ZINC000772422035    0.0800
     33 H33        -5.7326    4.5508   53.5183 H       1  ZINC000772422035    0.0800
     34 H34        -9.2061    4.0741   56.3237 H       1  ZINC000772422035    0.1400
     35 H35        -9.0946    5.5628   59.2663 H       1  ZINC000772422035    0.0900
     36 H36        -9.9269    4.1442   58.5858 H       1  ZINC000772422035    0.0900
     37 H37        -8.2086    2.7666   62.5109 H       1  ZINC000772422035    0.1100
     38 H38        -9.4489    3.7469   63.3287 H       1  ZINC000772422035    0.1100
     39 H39       -10.7272    2.4098   64.6247 H       1  ZINC000772422035    0.0600
     40 H40       -11.8969    2.8530   63.3584 H       1  ZINC000772422035    0.0800
     41 H41       -11.7605    1.1600   63.8907 H       1  ZINC000772422035    0.0600
     42 H42        -9.3187    1.3093   65.9945 H       1  ZINC000772422035    0.0900
     43 H43        -7.5446    1.2658   65.8558 H       1  ZINC000772422035    0.0900
     44 H44        -8.4802    2.4663   64.9330 H       1  ZINC000772422035    0.0900
     45 H45       -10.6179   -1.3446   61.0666 H       1  ZINC000772422035    0.0800
     46 H46        -9.7147    0.0090   60.3455 H       1  ZINC000772422035    0.0800
     47 H47        -8.9665   -1.6024   60.4544 H       1  ZINC000772422035    0.0800
     48 H48        -6.2922    4.5856   59.4086 H       1  ZINC000772422035    0.1400
     49 H49        -4.5310    4.3165   57.7126 H       1  ZINC000772422035    0.1700
@<TRIPOS>BOND
     1     1     2    1
     2     1    27    1
     3     1    28    1
     4     1    29    1
     5     2     3    1
     6     3     4    1
     7     3    30    1
     8     3    31    1
     9     4     5    1
    10     4    32    1
    11     4    33    1
    12     5     6    1
    13     6    26   ar
    14     6     7   ar
    15     7     8   ar
    16     7    34    1
    17     8     9    1
    18     8    24   ar
    19     9    10    1
    20     9    35    1
    21     9    36    1
    22    10    11    1
    23    11    12    2
    24    11    13    1
    25    13    14    1
    26    13    37    1
    27    13    38    1
    28    14    15    1
    29    14    16    1
    30    14    17    1
    31    16    39    1
    32    16    40    1
    33    16    41    1
    34    17    22    1
    35    17    18    2
    36    18    19    1
    37    18    20    1
    38    19    42    1
    39    19    43    1
    40    19    44    1
    41    20    21    1
    42    21    22    2
    43    22    23    1
    44    23    45    1
    45    23    46    1
    46    23    47    1
    47    24    25   ar
    48    24    48    1
    49    25    26   ar
    50    25    49    1
@<TRIPOS>SUBSTRUCTURE
     1 ZINC000772422035        1 TEMP              0 ****  ****    0 ROOT


##########                                Name:    ZINC000279593480
##########                DOCK_Rotatable_Bonds:                   9
##########                         Heavy_Atoms:                  23
##########                    Molecular_Weight:              340.85
##########                DOCK_Rotatable_Bonds:                   9
##########                       Formal_Charge:          -0.0500002
##########                     HBond_Acceptors:                   6
##########                        HBond_Donors:                   3
##########                         Heavy_Atoms:                  23
##########                          Grid_Score:          -31.518066
##########                     Grid_vdw_energy:          -33.378029
##########                      Grid_es_energy:            1.859963
##########           Internal_energy_repulsive:           11.709063

@<TRIPOS>MOLECULE
ZINC000279593480
 48 49 1 0 0
SMALL
USER_CHARGES


@<TRIPOS>ATOM
      1 C1        -13.0309    0.2057   58.7935 C.3     1  ZINC000279593480   -0.1400
      2 C2        -12.5302   -1.2384   58.8625 C.3     1  ZINC000279593480   -0.1400
      3 C3        -11.1979   -1.2809   59.6135 C.3     1  ZINC000279593480    0.1700
      4 H4        -10.4303   -0.7842   59.0201 H       1  ZINC000279593480    0.0900
      5 C5        -10.7942   -2.7369   59.8538 C.3     1  ZINC000279593480   -0.0900
      6 C6         -9.7297   -3.1331   58.8632 C.ar    1  ZINC000279593480   -0.0800
      7 C7         -8.3988   -3.1200   59.2370 C.ar    1  ZINC000279593480   -0.1000
      8 C8         -7.4221   -3.4833   58.3289 C.ar    1  ZINC000279593480   -0.1100
      9 C9         -7.7767   -3.8601   57.0458 C.ar    1  ZINC000279593480   -0.0400
     10 Cl10       -6.5506   -4.3170   55.9049 Cl      1  ZINC000279593480   -0.0700
     11 C11        -9.1088   -3.8730   56.6724 C.ar    1  ZINC000279593480   -0.1100
     12 C12       -10.0850   -3.5149   57.5830 C.ar    1  ZINC000279593480   -0.1000
     13 N13       -11.3405   -0.5950   60.9002 N.am    1  ZINC000279593480   -0.7400
     14 C14       -10.3394    0.1774   61.3667 C.2     1  ZINC000279593480    0.7100
     15 O15        -9.3184    0.3061   60.7189 O.2     1  ZINC000279593480   -0.5800
     16 N16       -10.4698    0.8071   62.5511 N.am    1  ZINC000279593480   -0.7500
     17 C17        -9.3823    1.6480   63.0573 C.3     1  ZINC000279593480    0.1200
     18 C18        -9.4846    1.7520   64.5804 C.3     1  ZINC000279593480    0.0900
     19 O19       -10.8503    1.6822   64.9951 O.3     1  ZINC000279593480   -0.5400
     20 C20        -8.6529    0.6388   65.2560 C.3     1  ZINC000279593480   -0.1900
     21 C21        -7.5981    1.4074   66.0824 C.3     1  ZINC000279593480    0.0500
     22 O22        -8.1886    2.7039   66.3202 O.3     1  ZINC000279593480   -0.3600
     23 C23        -8.8339    3.0615   65.0785 C.3     1  ZINC000279593480    0.0900
     24 H24        -8.0982    3.4178   64.3574 H       1  ZINC000279593480    0.0800
     25 C25        -9.9012    4.1305   65.3215 C.3     1  ZINC000279593480   -0.1400
     26 H26       -12.2985    0.8196   58.2692 H       1  ZINC000279593480    0.0600
     27 H27       -13.9801    0.2360   58.2585 H       1  ZINC000279593480    0.0400
     28 H28       -13.1709    0.5904   59.8037 H       1  ZINC000279593480    0.0600
     29 H29       -13.2625   -1.8522   59.3869 H       1  ZINC000279593480    0.0600
     30 H30       -12.3903   -1.6231   57.8523 H       1  ZINC000279593480    0.0700
     31 H31       -10.4058   -2.8439   60.8666 H       1  ZINC000279593480    0.0800
     32 H32       -11.6647   -3.3807   59.7286 H       1  ZINC000279593480    0.0900
     33 H33        -8.1222   -2.8255   60.2386 H       1  ZINC000279593480    0.1300
     34 H34        -6.3824   -3.4727   58.6209 H       1  ZINC000279593480    0.1300
     35 H35        -9.3861   -4.1667   55.6708 H       1  ZINC000279593480    0.1300
     36 H36       -11.1249   -3.5253   57.2917 H       1  ZINC000279593480    0.1300
     37 H37       -12.1554   -0.6968   61.4164 H       1  ZINC000279593480    0.3900
     38 H38       -11.2838    0.7035   63.0684 H       1  ZINC000279593480    0.3900
     39 H39        -8.4241    1.2046   62.7869 H       1  ZINC000279593480    0.0800
     40 H40        -9.4586    2.6434   62.6193 H       1  ZINC000279593480    0.0800
     41 H41       -11.4056    2.3902   64.6409 H       1  ZINC000279593480    0.3700
     42 H42        -9.2828    0.0341   65.9085 H       1  ZINC000279593480    0.0900
     43 H43        -8.1689    0.0145   64.5050 H       1  ZINC000279593480    0.0900
     44 H44        -7.4105    0.8970   67.0270 H       1  ZINC000279593480    0.1000
     45 H45        -6.6729    1.5101   65.5153 H       1  ZINC000279593480    0.0600
     46 H46        -9.4316    5.0279   65.7243 H       1  ZINC000279593480    0.0600
     47 H47       -10.3960    4.3705   64.3804 H       1  ZINC000279593480    0.0700
     48 H48       -10.6365    3.7547   66.0330 H       1  ZINC000279593480    0.0700
@<TRIPOS>BOND
     1     1     2    1
     2     1    26    1
     3     1    27    1
     4     1    28    1
     5     2     3    1
     6     2    29    1
     7     2    30    1
     8     3     4    1
     9     3     5    1
    10     3    13    1
    11     5     6    1
    12     5    31    1
    13     5    32    1
    14     6    12   ar
    15     6     7   ar
    16     7     8   ar
    17     7    33    1
    18     8     9   ar
    19     8    34    1
    20     9    10    1
    21     9    11   ar
    22    11    12   ar
    23    11    35    1
    24    12    36    1
    25    13    14   am
    26    13    37    1
    27    14    15    2
    28    14    16   am
    29    16    17    1
    30    16    38    1
    31    17    18    1
    32    17    39    1
    33    17    40    1
    34    18    23    1
    35    18    19    1
    36    18    20    1
    37    19    41    1
    38    20    21    1
    39    20    42    1
    40    20    43    1
    41    21    22    1
    42    21    44    1
    43    21    45    1
    44    22    23    1
    45    23    24    1
    46    23    25    1
    47    25    46    1
    48    25    47    1
    49    25    48    1
@<TRIPOS>SUBSTRUCTURE
     1 ZINC000279593480        1 TEMP              0 ****  ****    0 ROOT


##########                                Name:    ZINC000027473870
##########                DOCK_Rotatable_Bonds:                  10
##########                         Heavy_Atoms:                  31
##########                    Molecular_Weight:             422.502
##########                DOCK_Rotatable_Bonds:                  10
##########                       Formal_Charge:        -7.45058e-08
##########                     HBond_Acceptors:                   7
##########                        HBond_Donors:                   1
##########                         Heavy_Atoms:                  31
##########                          Grid_Score:          -31.467655
##########                     Grid_vdw_energy:          -32.506012
##########                      Grid_es_energy:            1.038357
##########           Internal_energy_repulsive:           28.456247

@<TRIPOS>MOLECULE
ZINC000027473870
 58 60 1 0 0
SMALL
USER_CHARGES


@<TRIPOS>ATOM
      1 C1        -12.6510    1.4262   61.5328 C.3     1  ZINC000027473870   -0.1400
      2 C2        -12.1750    0.1083   62.1471 C.3     1  ZINC000027473870   -0.0800
      3 C3        -11.0555   -0.4593   61.3132 C.2     1  ZINC000027473870    0.1700
      4 C4        -11.1808   -1.0600   60.0763 C.2     1  ZINC000027473870   -0.2900
      5 C5        -12.4330   -1.2653   59.3261 C.2     1  ZINC000027473870    0.6000
      6 O6        -13.5016   -1.2309   59.9056 O.2     1  ZINC000027473870   -0.5400
      7 N7        -12.3938   -1.4911   57.9980 N.am    1  ZINC000027473870   -0.7200
      8 C8        -13.6384   -1.6933   57.2522 C.3     1  ZINC000027473870    0.1600
      9 C9        -13.5322   -1.0230   55.9066 C.ar    1  ZINC000027473870   -0.0900
     10 C10       -14.0359    0.2537   55.7314 C.ar    1  ZINC000027473870   -0.1100
     11 C11       -13.9423    0.8728   54.5021 C.ar    1  ZINC000027473870   -0.1100
     12 C12       -13.3376    0.2083   53.4339 C.ar    1  ZINC000027473870   -0.1200
     13 C13       -13.2334    0.8659   52.1137 C.2     1  ZINC000027473870    0.5600
     14 O14       -12.4667    1.7959   51.9568 O.2     1  ZINC000027473870   -0.5300
     15 N15       -13.9886    0.4340   51.0843 N.am    1  ZINC000027473870   -0.6100
     16 C16       -13.8854    1.0854   49.7763 C.3     1  ZINC000027473870    0.1100
     17 C17       -14.1873    0.0677   48.6745 C.3     1  ZINC000027473870   -0.1700
     18 C18       -14.9126   -0.6871   51.2735 C.3     1  ZINC000027473870    0.0900
     19 C19       -16.2767   -0.1543   51.7169 C.3     1  ZINC000027473870   -0.1800
     20 C20       -12.8311   -1.0793   53.6175 C.ar    1  ZINC000027473870   -0.0700
     21 C21       -12.9266   -1.6849   54.8534 C.ar    1  ZINC000027473870   -0.1000
     22 C22        -9.8839   -1.4410   59.6638 C.2     1  ZINC000027473870    0.0900
     23 N23        -9.0427   -1.0885   60.5970 N.2     1  ZINC000027473870   -0.2800
     24 N24        -9.7490   -0.4688   61.6339 N.pl3   1  ZINC000027473870   -0.3100
     25 C25        -9.1907    0.0465   62.8124 C.ar    1  ZINC000027473870    0.1300
     26 C26        -8.5385   -0.7988   63.6999 C.ar    1  ZINC000027473870   -0.0900
     27 C27        -7.9888   -0.2895   64.8599 C.ar    1  ZINC000027473870   -0.1300
     28 C28        -8.0878    1.0635   65.1381 C.ar    1  ZINC000027473870    0.1100
     29 F29        -7.5491    1.5602   66.2732 F       1  ZINC000027473870   -0.1300
     30 C30        -8.7381    1.9083   64.2539 C.ar    1  ZINC000027473870   -0.1400
     31 C31        -9.2845    1.4034   63.0905 C.ar    1  ZINC000027473870   -0.0700
     32 H32       -13.5171    1.7922   62.0840 H       1  ZINC000027473870    0.0700
     33 H33       -11.8490    2.1623   61.5857 H       1  ZINC000027473870    0.0700
     34 H34       -12.9261    1.2628   60.4907 H       1  ZINC000027473870    0.0500
     35 H35       -11.8176    0.2882   63.1610 H       1  ZINC000027473870    0.1200
     36 H36       -13.0031   -0.6000   62.1742 H       1  ZINC000027473870    0.0800
     37 H37       -11.5413   -1.5198   57.5359 H       1  ZINC000027473870    0.4000
     38 H38       -13.8098   -2.7607   57.1139 H       1  ZINC000027473870    0.0800
     39 H39       -14.4698   -1.2609   57.8088 H       1  ZINC000027473870    0.0800
     40 H40       -14.5035    0.7667   56.5588 H       1  ZINC000027473870    0.1300
     41 H41       -14.3364    1.8691   54.3664 H       1  ZINC000027473870    0.1500
     42 H42       -14.6025    1.9045   49.7207 H       1  ZINC000027473870    0.0800
     43 H43       -12.8765    1.4762   49.6436 H       1  ZINC000027473870    0.0800
     44 H44       -14.1106    0.5525   47.7012 H       1  ZINC000027473870    0.0700
     45 H45       -13.4703   -0.7513   48.7299 H       1  ZINC000027473870    0.0600
     46 H46       -15.1963   -0.3229   48.8072 H       1  ZINC000027473870    0.0600
     47 H47       -15.0223   -1.2299   50.3348 H       1  ZINC000027473870    0.0800
     48 H48       -14.5188   -1.3577   52.0373 H       1  ZINC000027473870    0.0900
     49 H49       -16.8800   -0.9762   52.1022 H       1  ZINC000027473870    0.0700
     50 H50       -16.1385    0.5926   52.4986 H       1  ZINC000027473870    0.0700
     51 H51       -16.7834    0.3003   50.8655 H       1  ZINC000027473870    0.0600
     52 H52       -12.3625   -1.5989   52.7948 H       1  ZINC000027473870    0.1300
     53 H53       -12.5348   -2.6811   54.9969 H       1  ZINC000027473870    0.1300
     54 H54        -9.6330   -1.9377   58.7382 H       1  ZINC000027473870    0.1900
     55 H55        -8.4614   -1.8541   63.4835 H       1  ZINC000027473870    0.1500
     56 H56        -7.4816   -0.9468   65.5507 H       1  ZINC000027473870    0.1500
     57 H57        -8.8146    2.9631   64.4729 H       1  ZINC000027473870    0.1500
     58 H58        -9.7911    2.0626   62.4011 H       1  ZINC000027473870    0.1400
@<TRIPOS>BOND
     1     1     2    1
     2     1    32    1
     3     1    33    1
     4     1    34    1
     5     2     3    1
     6     2    35    1
     7     2    36    1
     8     3    24    1
     9     3     4    2
    10     4     5    1
    11     4    22    1
    12     5     6    2
    13     5     7   am
    14     7     8    1
    15     7    37    1
    16     8     9    1
    17     8    38    1
    18     8    39    1
    19     9    21   ar
    20     9    10   ar
    21    10    11   ar
    22    10    40    1
    23    11    12   ar
    24    11    41    1
    25    12    13    1
    26    12    20   ar
    27    13    14    2
    28    13    15   am
    29    15    16    1
    30    15    18    1
    31    16    17    1
    32    16    42    1
    33    16    43    1
    34    17    44    1
    35    17    45    1
    36    17    46    1
    37    18    19    1
    38    18    47    1
    39    18    48    1
    40    19    49    1
    41    19    50    1
    42    19    51    1
    43    20    21   ar
    44    20    52    1
    45    21    53    1
    46    22    23    2
    47    22    54    1
    48    23    24    1
    49    24    25    1
    50    25    31   ar
    51    25    26   ar
    52    26    27   ar
    53    26    55    1
    54    27    28   ar
    55    27    56    1
    56    28    29    1
    57    28    30   ar
    58    30    31   ar
    59    30    57    1
    60    31    58    1
@<TRIPOS>SUBSTRUCTURE
     1 ZINC000027473870        1 TEMP              0 ****  ****    0 ROOT


##########                                Name:    ZINC001328997126
##########                DOCK_Rotatable_Bonds:                   7
##########                         Heavy_Atoms:                  26
##########                    Molecular_Weight:             388.488
##########                DOCK_Rotatable_Bonds:                   7
##########                       Formal_Charge:           0.0299993
##########                     HBond_Acceptors:                  10
##########                        HBond_Donors:                   1
##########                         Heavy_Atoms:                  26
##########                          Grid_Score:          -31.463385
##########                     Grid_vdw_energy:          -29.919075
##########                      Grid_es_energy:           -1.544310
##########           Internal_energy_repulsive:           11.895438

@<TRIPOS>MOLECULE
ZINC001328997126
 54 56 1 0 0
SMALL
USER_CHARGES


@<TRIPOS>ATOM
      1 C1          1.1203    0.4625   64.6000 C.3     1  ZINC001328997126   -0.1700
      2 C2          0.5931    1.8981   64.5531 C.3     1  ZINC001328997126    0.1400
      3 N3          0.2606    2.2512   63.1708 N.am    1  ZINC001328997126   -0.6300
      4 C4         -0.2012    1.3136   62.1358 C.3     1  ZINC001328997126    0.0700
      5 C5         -0.3986    2.2052   60.8946 C.3     1  ZINC001328997126    0.0700
      6 H6         -1.4397    2.1860   60.5720 H       1  ZINC001328997126    0.1200
      7 C7          0.5219    1.7546   59.7586 C.3     1  ZINC001328997126    0.0500
      8 N8          0.4219    2.7036   58.6418 N.3     1  ZINC001328997126   -0.5300
      9 C9         -0.9710    2.8475   58.1959 C.3     1  ZINC001328997126    0.0500
     10 C10        -1.0430    3.9008   57.0879 C.3     1  ZINC001328997126    0.0600
     11 N11        -0.1753    3.4954   55.9732 N.3     1  ZINC001328997126   -0.5200
     12 C12        -0.2752    4.4445   54.8563 C.3     1  ZINC001328997126    0.0400
     13 C13         0.2812    3.8108   53.6073 C.2     1  ZINC001328997126    0.5200
     14 O14         0.9473    4.4704   52.8378 O.2     1  ZINC001328997126   -0.5100
     15 N15         0.0385    2.5113   53.3454 N.am    1  ZINC001328997126   -0.7300
     16 C16         0.5779    1.8957   52.1303 C.3     1  ZINC001328997126    0.1600
     17 H17         0.4601    2.5797   51.2898 H       1  ZINC001328997126    0.1100
     18 C18         2.0694    1.5751   52.3311 C.3     1  ZINC001328997126   -0.1400
     19 C19         2.4838    0.6428   51.1635 C.3     1  ZINC001328997126   -0.5800
     20 S20         1.0635   -0.5102   51.0504 S.o2    1  ZINC001328997126    2.4000
     21 O21         0.7216   -0.7038   49.6848 O.2     1  ZINC001328997126   -0.9300
     22 O22         1.3017   -1.6341   51.8866 O.2     1  ZINC001328997126   -0.9300
     23 C23        -0.1727    0.5812   51.8381 C.3     1  ZINC001328997126   -0.6100
     24 C24         1.2175    3.3516   56.4190 C.3     1  ZINC001328997126    0.0500
     25 C25         1.2895    2.2983   57.5270 C.3     1  ZINC001328997126    0.0600
     26 O26        -0.0312    3.5377   61.3555 O.3     1  ZINC001328997126   -0.3100
     27 C27         0.3220    3.4821   62.6446 C.2     1  ZINC001328997126    0.6400
     28 O28         0.6743    4.4572   63.2782 O.2     1  ZINC001328997126   -0.5200
     29 H29         0.3555   -0.2178   64.2252 H       1  ZINC001328997126    0.0600
     30 H30         2.0130    0.3828   63.9798 H       1  ZINC001328997126    0.0600
     31 H31         1.3677    0.1997   65.6285 H       1  ZINC001328997126    0.0700
     32 H32        -0.2997    1.9777   65.1733 H       1  ZINC001328997126    0.0900
     33 H33         1.3578    2.5784   64.9280 H       1  ZINC001328997126    0.0900
     34 H34         0.5549    0.5523   61.9440 H       1  ZINC001328997126    0.0900
     35 H35        -1.1441    0.8526   62.4300 H       1  ZINC001328997126    0.0900
     36 H36         1.5509    1.7215   60.1163 H       1  ZINC001328997126    0.0900
     37 H37         0.2227    0.7626   59.4203 H       1  ZINC001328997126    0.0600
     38 H38        -1.3309    1.8923   57.8136 H       1  ZINC001328997126    0.0500
     39 H39        -1.5912    3.1603   59.0359 H       1  ZINC001328997126    0.0900
     40 H40        -2.0707    3.9884   56.7356 H       1  ZINC001328997126    0.0800
     41 H41        -0.7086    4.8622   57.4778 H       1  ZINC001328997126    0.0500
     42 H42        -1.3207    4.7075   54.6955 H       1  ZINC001328997126    0.1100
     43 H43         0.2937    5.3439   55.0918 H       1  ZINC001328997126    0.0700
     44 H44        -0.4934    1.9835   53.9614 H       1  ZINC001328997126    0.4100
     45 H45         2.6559    2.4933   52.3018 H       1  ZINC001328997126    0.1100
     46 H46         2.2170    1.0675   53.2844 H       1  ZINC001328997126    0.0900
     47 H47         2.5975    1.2084   50.2386 H       1  ZINC001328997126    0.1400
     48 H48         3.4006    0.1049   51.4046 H       1  ZINC001328997126    0.1400
     49 H49        -0.5345    0.1361   52.7650 H       1  ZINC001328997126    0.1400
     50 H50        -1.0030    0.7662   51.1567 H       1  ZINC001328997126    0.1500
     51 H51         1.8378    3.0387   55.5790 H       1  ZINC001328997126    0.1000
     52 H52         1.5775    4.3068   56.8013 H       1  ZINC001328997126    0.0400
     53 H53         2.3173    2.2107   57.8794 H       1  ZINC001328997126    0.0800
     54 H54         0.9552    1.3368   57.1371 H       1  ZINC001328997126    0.0500
@<TRIPOS>BOND
     1     1     2    1
     2     1    29    1
     3     1    30    1
     4     1    31    1
     5     2     3    1
     6     2    32    1
     7     2    33    1
     8     3    27   am
     9     3     4    1
    10     4     5    1
    11     4    34    1
    12     4    35    1
    13     5     6    1
    14     5     7    1
    15     5    26    1
    16     7     8    1
    17     7    36    1
    18     7    37    1
    19     8    25    1
    20     8     9    1
    21     9    10    1
    22     9    38    1
    23     9    39    1
    24    10    11    1
    25    10    40    1
    26    10    41    1
    27    11    12    1
    28    11    24    1
    29    12    13    1
    30    12    42    1
    31    12    43    1
    32    13    14    2
    33    13    15   am
    34    15    16    1
    35    15    44    1
    36    16    17    1
    37    16    23    1
    38    16    18    1
    39    18    19    1
    40    18    45    1
    41    18    46    1
    42    19    20    1
    43    19    47    1
    44    19    48    1
    45    20    21    2
    46    20    22    2
    47    20    23    1
    48    23    49    1
    49    23    50    1
    50    24    25    1
    51    24    51    1
    52    24    52    1
    53    25    53    1
    54    25    54    1
    55    26    27    1
    56    27    28    2
@<TRIPOS>SUBSTRUCTURE
     1 ZINC001328997126        1 TEMP              0 ****  ****    0 ROOT


##########                                Name:    ZINC000508765459
##########                DOCK_Rotatable_Bonds:                  10
##########                         Heavy_Atoms:                  29
##########                    Molecular_Weight:               405.5
##########                DOCK_Rotatable_Bonds:                  10
##########                       Formal_Charge:         -6.4075e-07
##########                     HBond_Acceptors:                  10
##########                        HBond_Donors:                   1
##########                         Heavy_Atoms:                  29
##########                          Grid_Score:          -31.431633
##########                     Grid_vdw_energy:          -27.968588
##########                      Grid_es_energy:           -3.463046
##########           Internal_energy_repulsive:           20.704922

@<TRIPOS>MOLECULE
ZINC000508765459
 60 62 1 0 0
SMALL
USER_CHARGES


@<TRIPOS>ATOM
      1 C1          1.0347   -1.7345   51.7604 C.3     1  ZINC000508765459    0.0300
      2 O2          1.5368   -0.3973   51.8069 O.3     1  ZINC000508765459   -0.3900
      3 C3          0.5804    0.5959   51.4317 C.3     1  ZINC000508765459    0.0500
      4 C4          1.2193    1.9825   51.5315 C.3     1  ZINC000508765459    0.1100
      5 N5          1.4195    2.3276   52.9411 N.am    1  ZINC000508765459   -0.5900
      6 C6          2.6983    1.9835   53.5475 C.3     1  ZINC000508765459    0.1000
      7 C7          2.9637    2.8480   54.7816 C.3     1  ZINC000508765459    0.1200
      8 N8          1.7420    2.8627   55.6039 N.am    1  ZINC000508765459   -0.6400
      9 C9          1.7378    2.3793   56.8619 C.2     1  ZINC000508765459    0.7100
     10 O10         2.7570    1.9203   57.3403 O.2     1  ZINC000508765459   -0.5800
     11 N11         0.6037    2.4048   57.5898 N.am    1  ZINC000508765459   -0.7400
     12 C12         0.5995    1.8810   58.9580 C.3     1  ZINC000508765459    0.1400
     13 C13        -0.8444    1.6779   59.4219 C.3     1  ZINC000508765459   -0.1400
     14 C14        -0.8541    0.8646   60.7177 C.3     1  ZINC000508765459    0.0600
     15 N15         0.0302    1.5020   61.7024 N.3     1  ZINC000508765459   -0.5400
     16 C16         0.1130    0.7015   62.9321 C.3     1  ZINC000508765459    0.0500
     17 C17         1.1027    1.3564   63.8984 C.3     1  ZINC000508765459    0.0700
     18 N18         0.6607    2.7265   64.1941 N.3     1  ZINC000508765459   -0.4600
     19 C19         1.4940    3.3270   65.1219 C.ar    1  ZINC000508765459    0.4900
     20 N20         2.1086    2.5740   66.0222 N.ar    1  ZINC000508765459   -0.5500
     21 C21         2.9118    3.1162   66.9225 C.ar    1  ZINC000508765459    0.1700
     22 C22         3.1062    4.4886   66.9157 C.ar    1  ZINC000508765459   -0.2600
     23 C23         2.4478    5.2465   65.9601 C.ar    1  ZINC000508765459    0.1700
     24 N24         1.6622    4.6408   65.0851 N.ar    1  ZINC000508765459   -0.5300
     25 C25         0.5779    3.5270   62.9645 C.3     1  ZINC000508765459    0.0700
     26 C26        -0.4117    2.8720   61.9982 C.3     1  ZINC000508765459    0.0600
     27 C27         0.5273    3.4266   54.9967 C.3     1  ZINC000508765459    0.1000
     28 C28         0.4199    2.9396   53.5777 C.2     1  ZINC000508765459    0.5100
     29 O29        -0.6270    3.1034   52.9876 O.2     1  ZINC000508765459   -0.5400
     30 H30         0.7117   -1.9662   50.7454 H       1  ZINC000508765459    0.0400
     31 H31         1.8207   -2.4283   52.0588 H       1  ZINC000508765459    0.0900
     32 H32         0.1889   -1.8289   52.4414 H       1  ZINC000508765459    0.0400
     33 H33         0.2554    0.4186   50.4065 H       1  ZINC000508765459    0.0500
     34 H34        -0.2794    0.5431   52.0997 H       1  ZINC000508765459    0.0600
     35 H35         2.1811    1.9773   51.0186 H       1  ZINC000508765459    0.1100
     36 H36         0.5637    2.7190   51.0667 H       1  ZINC000508765459    0.0900
     37 H37         2.6855    0.9338   53.8408 H       1  ZINC000508765459    0.0700
     38 H38         3.4945    2.1424   52.8202 H       1  ZINC000508765459    0.1000
     39 H39         3.7885    2.4260   55.3557 H       1  ZINC000508765459    0.1200
     40 H40         3.2115    3.8635   54.4729 H       1  ZINC000508765459    0.0800
     41 H41        -0.2097    2.7700   57.2077 H       1  ZINC000508765459    0.4000
     42 H42         1.1269    0.9274   58.9836 H       1  ZINC000508765459    0.0700
     43 H43         1.0974    2.5896   59.6198 H       1  ZINC000508765459    0.0700
     44 H44        -1.3091    2.6480   59.5981 H       1  ZINC000508765459    0.0700
     45 H45        -1.4011    1.1426   58.6528 H       1  ZINC000508765459    0.0800
     46 H46        -1.8688    0.8236   61.1134 H       1  ZINC000508765459    0.0800
     47 H47        -0.5021   -0.1469   60.5144 H       1  ZINC000508765459    0.0400
     48 H48        -0.8707    0.6492   63.3988 H       1  ZINC000508765459    0.0500
     49 H49         0.4542   -0.3047   62.6885 H       1  ZINC000508765459    0.0900
     50 H50         1.1439    0.7802   64.8227 H       1  ZINC000508765459    0.0900
     51 H51         2.0922    1.3841   63.4422 H       1  ZINC000508765459    0.0600
     52 H52         3.4098    2.4973   67.6540 H       1  ZINC000508765459    0.1700
     53 H53         3.7564    4.9573   67.6397 H       1  ZINC000508765459    0.1500
     54 H54         2.5775    6.3182   65.9280 H       1  ZINC000508765459    0.1700
     55 H55         0.2367    4.5333   63.2079 H       1  ZINC000508765459    0.1000
     56 H56         1.5615    3.5793   62.4977 H       1  ZINC000508765459    0.0500
     57 H57        -0.4529    3.4483   61.0739 H       1  ZINC000508765459    0.0900
     58 H58        -1.4013    2.8445   62.4544 H       1  ZINC000508765459    0.0500
     59 H59        -0.3468    3.1053   55.5631 H       1  ZINC000508765459    0.1100
     60 H60         0.5880    4.5149   55.0020 H       1  ZINC000508765459    0.1100
@<TRIPOS>BOND
     1     1     2    1
     2     1    30    1
     3     1    31    1
     4     1    32    1
     5     2     3    1
     6     3     4    1
     7     3    33    1
     8     3    34    1
     9     4     5    1
    10     4    35    1
    11     4    36    1
    12     5    28   am
    13     5     6    1
    14     6     7    1
    15     6    37    1
    16     6    38    1
    17     7     8    1
    18     7    39    1
    19     7    40    1
    20     8     9   am
    21     8    27    1
    22     9    10    2
    23     9    11   am
    24    11    12    1
    25    11    41    1
    26    12    13    1
    27    12    42    1
    28    12    43    1
    29    13    14    1
    30    13    44    1
    31    13    45    1
    32    14    15    1
    33    14    46    1
    34    14    47    1
    35    15    26    1
    36    15    16    1
    37    16    17    1
    38    16    48    1
    39    16    49    1
    40    17    18    1
    41    17    50    1
    42    17    51    1
    43    18    19    1
    44    18    25    1
    45    19    24   ar
    46    19    20   ar
    47    20    21   ar
    48    21    22   ar
    49    21    52    1
    50    22    23   ar
    51    22    53    1
    52    23    24   ar
    53    23    54    1
    54    25    26    1
    55    25    55    1
    56    25    56    1
    57    26    57    1
    58    26    58    1
    59    27    28    1
    60    27    59    1
    61    27    60    1
    62    28    29    2
@<TRIPOS>SUBSTRUCTURE
     1 ZINC000508765459        1 TEMP              0 ****  ****    0 ROOT


##########                                Name:    ZINC000031496632
##########                DOCK_Rotatable_Bonds:                   8
##########                         Heavy_Atoms:                  30
##########                    Molecular_Weight:             423.539
##########                DOCK_Rotatable_Bonds:                   8
##########                       Formal_Charge:          -0.0100009
##########                     HBond_Acceptors:                   8
##########                        HBond_Donors:                   1
##########                         Heavy_Atoms:                  30
##########                          Grid_Score:          -31.429867
##########                     Grid_vdw_energy:          -32.551537
##########                      Grid_es_energy:            1.121670
##########           Internal_energy_repulsive:          105.771362

@<TRIPOS>MOLECULE
ZINC000031496632
 55 58 1 0 0
SMALL
USER_CHARGES


@<TRIPOS>ATOM
      1 C1         -9.0293    3.6352   67.1144 C.3     1  ZINC000031496632   -0.1600
      2 C2         -8.2059    3.4376   65.8401 C.3     1  ZINC000031496632    0.1600
      3 C3         -6.7853    3.9594   66.0649 C.3     1  ZINC000031496632   -0.1600
      4 N4         -8.1554    2.0117   65.5075 N.pl3   1  ZINC000031496632   -0.3900
      5 N5         -7.6353    1.0065   66.3286 N.2     1  ZINC000031496632   -0.2300
      6 C6         -7.7403   -0.1507   65.7406 C.2     1  ZINC000031496632    0.0800
      7 C7         -8.3676    0.0675   64.4418 C.ar    1  ZINC000031496632   -0.2100
      8 C8         -8.7338   -0.7707   63.3825 C.ar    1  ZINC000031496632    0.0100
      9 C9         -9.3259   -0.1931   62.2702 C.ar    1  ZINC000031496632    0.0500
     10 N10        -9.7121   -0.9868   61.1822 N.am    1  ZINC000031496632   -0.6600
     11 C11       -11.0108   -1.0616   60.8299 C.2     1  ZINC000031496632    0.5500
     12 O12       -11.8477   -0.4400   61.4565 O.2     1  ZINC000031496632   -0.4900
     13 C13       -11.4170   -1.8964   59.6854 C.ar    1  ZINC000031496632   -0.1300
     14 C14       -10.4517   -2.4396   58.8339 C.ar    1  ZINC000031496632   -0.0600
     15 C15       -10.8380   -3.2191   57.7655 C.ar    1  ZINC000031496632   -0.1400
     16 C16       -12.1808   -3.4684   57.5292 C.ar    1  ZINC000031496632   -0.0600
     17 C17       -13.1466   -2.9392   58.3600 C.ar    1  ZINC000031496632   -0.1500
     18 C18       -12.7768   -2.1558   59.4470 C.ar    1  ZINC000031496632   -0.0600
     19 S19       -14.0076   -1.4788   60.5107 S.3     1  ZINC000031496632    0.0900
     20 C20       -15.5548   -2.0802   59.7791 C.3     1  ZINC000031496632   -0.2000
     21 C21       -15.6704   -1.5758   58.3637 C.2     1  ZINC000031496632    0.5500
     22 O22       -16.2667   -2.2291   57.5339 O.2     1  ZINC000031496632   -0.5200
     23 N23       -15.1108   -0.3989   58.0199 N.am    1  ZINC000031496632   -0.6200
     24 C24       -14.3561    0.4862   58.9190 C.3     1  ZINC000031496632    0.1000
     25 C25       -13.9329    1.7217   58.0969 C.3     1  ZINC000031496632   -0.1300
     26 C26       -14.9556    1.7297   56.9302 C.3     1  ZINC000031496632   -0.1300
     27 C27       -15.1487    0.2112   56.6783 C.3     1  ZINC000031496632    0.1000
     28 C28        -9.5338    1.1849   62.2450 C.ar    1  ZINC000031496632    0.1600
     29 N29        -9.1805    1.9511   63.2532 N.ar    1  ZINC000031496632   -0.4900
     30 C30        -8.6157    1.4513   64.3452 C.ar    1  ZINC000031496632    0.3000
     31 H31        -9.0669    4.6961   67.3619 H       1  ZINC000031496632    0.0800
     32 H32       -10.0414    3.2635   66.9543 H       1  ZINC000031496632    0.0600
     33 H33        -8.5665    3.0869   67.9349 H       1  ZINC000031496632    0.0700
     34 H34        -8.6687    3.9860   65.0197 H       1  ZINC000031496632    0.1100
     35 H35        -6.8228    5.0203   66.3125 H       1  ZINC000031496632    0.0800
     36 H36        -6.3223    3.4111   66.8855 H       1  ZINC000031496632    0.0700
     37 H37        -6.1986    3.8186   65.1572 H       1  ZINC000031496632    0.0600
     38 H38        -7.4203   -1.1010   66.1421 H       1  ZINC000031496632    0.2000
     39 H39        -8.5598   -1.8356   63.4301 H       1  ZINC000031496632    0.1500
     40 H40        -9.0447   -1.4825   60.6825 H       1  ZINC000031496632    0.4100
     41 H41        -9.4039   -2.2483   59.0125 H       1  ZINC000031496632    0.1300
     42 H42       -10.0902   -3.6382   57.1084 H       1  ZINC000031496632    0.1300
     43 H43       -12.4730   -4.0806   56.6887 H       1  ZINC000031496632    0.1300
     44 H44       -14.1908   -3.1378   58.1684 H       1  ZINC000031496632    0.1300
     45 H45       -15.5563   -3.1702   59.7776 H       1  ZINC000031496632    0.1100
     46 H46       -16.3990   -1.7163   60.3646 H       1  ZINC000031496632    0.1100
     47 H47       -14.9878    0.7940   59.7523 H       1  ZINC000031496632    0.0700
     48 H48       -13.4723   -0.0311   59.2926 H       1  ZINC000031496632    0.0700
     49 H49       -14.0207    2.6301   58.6929 H       1  ZINC000031496632    0.0900
     50 H50       -12.9174    1.6039   57.7188 H       1  ZINC000031496632    0.0800
     51 H51       -15.8906    2.2009   57.2334 H       1  ZINC000031496632    0.0800
     52 H52       -14.5401    2.2202   56.0499 H       1  ZINC000031496632    0.0900
     53 H53       -14.3413   -0.1760   56.0568 H       1  ZINC000031496632    0.0700
     54 H54       -16.1139    0.0245   56.2076 H       1  ZINC000031496632    0.0800
     55 H55        -9.9953    1.6333   61.3776 H       1  ZINC000031496632    0.1700
@<TRIPOS>BOND
     1     1     2    1
     2     1    31    1
     3     1    32    1
     4     1    33    1
     5     2     3    1
     6     2     4    1
     7     2    34    1
     8     3    35    1
     9     3    36    1
    10     3    37    1
    11     4    30    1
    12     4     5    1
    13     5     6    2
    14     6     7    1
    15     6    38    1
    16     7    30   ar
    17     7     8   ar
    18     8     9   ar
    19     8    39    1
    20     9    10    1
    21     9    28   ar
    22    10    11   am
    23    10    40    1
    24    11    12    2
    25    11    13    1
    26    13    18   ar
    27    13    14   ar
    28    14    15   ar
    29    14    41    1
    30    15    16   ar
    31    15    42    1
    32    16    17   ar
    33    16    43    1
    34    17    18   ar
    35    17    44    1
    36    18    19    1
    37    19    20    1
    38    20    21    1
    39    20    45    1
    40    20    46    1
    41    21    22    2
    42    21    23   am
    43    23    27    1
    44    23    24    1
    45    24    25    1
    46    24    47    1
    47    24    48    1
    48    25    26    1
    49    25    49    1
    50    25    50    1
    51    26    27    1
    52    26    51    1
    53    26    52    1
    54    27    53    1
    55    27    54    1
    56    28    29   ar
    57    28    55    1
    58    29    30   ar
@<TRIPOS>SUBSTRUCTURE
     1 ZINC000031496632        1 TEMP              0 ****  ****    0 ROOT


##########                                Name:    ZINC000266467123
##########                DOCK_Rotatable_Bonds:                   9
##########                         Heavy_Atoms:                  25
##########                    Molecular_Weight:             337.421
##########                DOCK_Rotatable_Bonds:                   9
##########                       Formal_Charge:                0.02
##########                     HBond_Acceptors:                   5
##########                        HBond_Donors:                   3
##########                         Heavy_Atoms:                  25
##########                          Grid_Score:          -31.362875
##########                     Grid_vdw_energy:          -28.182810
##########                      Grid_es_energy:           -3.180064
##########           Internal_energy_repulsive:           11.055911

@<TRIPOS>MOLECULE
ZINC000266467123
 48 50 1 0 0
SMALL
USER_CHARGES


@<TRIPOS>ATOM
      1 C1        -14.6631   -1.5137   59.5316 C.3     1  <0>        -0.1600
      2 C2        -13.3845   -1.0934   60.2593 C.3     1  <0>         0.1500
      3 H3        -13.3443   -1.5802   61.2336 H       1  <0>         0.1200
      4 N4        -13.3807    0.3605   60.4392 N.am    1  <0>        -0.7300
      5 C5        -13.3034    0.8862   61.6779 C.2     1  <0>         0.7100
      6 O6        -13.2355    0.1536   62.6459 O.2     1  <0>        -0.5900
      7 N7        -13.3014    2.2236   61.8435 N.am    1  <0>        -0.7100
      8 C8        -13.2157    2.7949   63.1897 C.3     1  <0>         0.1100
      9 H9        -13.9365    2.4094   63.9109 H       1  <0>         0.1400
     10 C10       -12.8162    4.2670   63.3084 C.3     1  <0>        -0.1900
     11 C11       -11.8270    3.1702   63.7108 C.3     1  <0>        -0.1500
     12 H12       -11.6342    3.0320   64.7747 H       1  <0>         0.1200
     13 C13       -10.6338    2.9211   62.7861 C.3     1  <0>        -0.0500
     14 C14        -9.7595    1.8432   63.3735 C.ar    1  <0>        -0.0800
     15 C15        -9.2167    2.0043   64.6345 C.ar    1  <0>        -0.1100
     16 C16        -8.4149    1.0156   65.1733 C.ar    1  <0>        -0.1200
     17 C17        -8.1561   -0.1344   64.4512 C.ar    1  <0>        -0.1200
     18 C18        -8.6997   -0.2959   63.1905 C.ar    1  <0>        -0.1200
     19 C19        -9.5051    0.6909   62.6535 C.ar    1  <0>        -0.1200
     20 C20       -12.1850   -1.5018   59.4436 C.2     1  <0>         0.5100
     21 O21       -11.8705   -0.8595   58.4641 O.2     1  <0>        -0.5100
     22 N22       -11.4618   -2.5809   59.8026 N.am    1  <0>        -0.6700
     23 C23       -10.3480   -2.9602   59.0452 C.ar    1  <0>         0.1400
     24 C24       -10.5212   -3.5358   57.7933 C.ar    1  <0>        -0.1400
     25 C25        -9.4198   -3.9091   57.0482 C.ar    1  <0>        -0.1000
     26 C26        -8.1457   -3.7106   57.5477 C.ar    1  <0>        -0.1300
     27 C27        -7.9700   -3.1381   58.7941 C.ar    1  <0>        -0.1000
     28 C28        -9.0671   -2.7565   59.5414 C.ar    1  <0>        -0.1200
     29 H29       -14.6662   -2.5954   59.3977 H       1  <0>         0.0700
     30 H30       -15.5309   -1.2182   60.1216 H       1  <0>         0.0800
     31 H31       -14.7035   -1.0269   58.5572 H       1  <0>         0.0700
     32 H32       -13.4336    0.9450   59.6668 H       1  <0>         0.4100
     33 H33       -13.3568    2.8080   61.0712 H       1  <0>         0.4000
     34 H34       -12.6170    4.8105   62.3848 H       1  <0>         0.1000
     35 H35       -13.2737    4.8499   64.1078 H       1  <0>         0.1000
     36 H36       -10.9929    2.6043   61.8070 H       1  <0>         0.0800
     37 H37       -10.0570    3.8400   62.6817 H       1  <0>         0.0700
     38 H38        -9.4188    2.9028   65.1986 H       1  <0>         0.1200
     39 H39        -7.9901    1.1418   66.1582 H       1  <0>         0.1200
     40 H40        -7.5291   -0.9066   64.8719 H       1  <0>         0.1200
     41 H41        -8.4974   -1.1943   62.6262 H       1  <0>         0.1200
     42 H42        -9.9298    0.5648   61.6686 H       1  <0>         0.1200
     43 H43       -11.7134   -3.0946   60.5859 H       1  <0>         0.4100
     44 H44       -11.5160   -3.6917   57.4030 H       1  <0>         0.1300
     45 H45        -9.5538   -4.3568   56.0745 H       1  <0>         0.1300
     46 H46        -7.2861   -4.0037   56.9633 H       1  <0>         0.1200
     47 H47        -6.9737   -2.9851   59.1818 H       1  <0>         0.1300
     48 H48        -8.9292   -2.3095   60.5148 H       1  <0>         0.1400
@<TRIPOS>BOND
     1     1     2    1
     2     1    29    1
     3     1    30    1
     4     1    31    1
     5     2     3    1
     6     2     4    1
     7     2    20    1
     8     4     5   am
     9     4    32    1
    10     5     6    2
    11     5     7   am
    12     7     8    1
    13     7    33    1
    14     8     9    1
    15     8    11    1
    16     8    10    1
    17    10    11    1
    18    10    34    1
    19    10    35    1
    20    11    12    1
    21    11    13    1
    22    13    14    1
    23    13    36    1
    24    13    37    1
    25    14    19   ar
    26    14    15   ar
    27    15    16   ar
    28    15    38    1
    29    16    17   ar
    30    16    39    1
    31    17    18   ar
    32    17    40    1
    33    18    19   ar
    34    18    41    1
    35    19    42    1
    36    20    21    2
    37    20    22   am
    38    22    23    1
    39    22    43    1
    40    23    28   ar
    41    23    24   ar
    42    24    25   ar
    43    24    44    1
    44    25    26   ar
    45    25    45    1
    46    26    27   ar
    47    26    46    1
    48    27    28   ar
    49    27    47    1
    50    28    48    1
@<TRIPOS>SUBSTRUCTURE
     1 <0>         1 TEMP              0 ****  ****    0 ROOT


##########                                Name:    ZINC000912668252
##########                DOCK_Rotatable_Bonds:                  10
##########                         Heavy_Atoms:                  30
##########                    Molecular_Weight:             411.433
##########                DOCK_Rotatable_Bonds:                  10
##########                       Formal_Charge:           0.0199993
##########                     HBond_Acceptors:                   8
##########                        HBond_Donors:                   2
##########                         Heavy_Atoms:                  30
##########                          Grid_Score:          -31.361725
##########                     Grid_vdw_energy:          -29.495022
##########                      Grid_es_energy:           -1.866703
##########           Internal_energy_repulsive:           18.012442

@<TRIPOS>MOLECULE
ZINC000912668252
 52 54 1 0 0
SMALL
USER_CHARGES


@<TRIPOS>ATOM
      1 C1        -11.8362    3.0585   65.1679 C.3     1  ZINC000912668252   -0.1700
      2 C2        -10.7085    2.3005   64.4647 C.3     1  ZINC000912668252    0.1100
      3 N3         -9.6469    3.2391   64.0929 N.am    1  ZINC000912668252   -0.6100
      4 C4         -8.4892    3.4212   64.9719 C.3     1  ZINC000912668252    0.1000
      5 C5         -8.1745    2.1023   65.6807 C.3     1  ZINC000912668252   -0.1800
      6 C6         -9.7354    3.9351   62.9421 C.2     1  ZINC000912668252    0.5600
      7 O7         -8.8547    4.7139   62.6337 O.2     1  ZINC000912668252   -0.5300
      8 C8        -10.9039    3.7513   62.0549 C.ar    1  ZINC000912668252   -0.1100
      9 C9        -11.9156    4.7123   62.0212 C.ar    1  ZINC000912668252   -0.1100
     10 C10       -13.0050    4.5386   61.1918 C.ar    1  ZINC000912668252   -0.1000
     11 C11       -13.0988    3.4147   60.3927 C.ar    1  ZINC000912668252   -0.1200
     12 C12       -12.0966    2.4519   60.4190 C.ar    1  ZINC000912668252    0.1400
     13 N13       -12.1962    1.3159   59.6076 N.am    1  ZINC000912668252   -0.6700
     14 C14       -13.3128    0.5618   59.6382 C.2     1  ZINC000912668252    0.5200
     15 O15       -14.2314    0.8676   60.3688 O.2     1  ZINC000912668252   -0.4900
     16 C16       -13.4201   -0.6614   58.7645 C.3     1  ZINC000912668252    0.0500
     17 O17       -13.2772   -1.8536   59.5811 O.3     1  ZINC000912668252   -0.3300
     18 C18       -12.9373   -2.9935   58.9461 C.2     1  ZINC000912668252    0.5400
     19 O19       -13.7829   -3.8357   58.7144 O.2     1  ZINC000912668252   -0.4800
     20 C20       -11.5452   -3.2177   58.5342 C.2     1  ZINC000912668252    0.0400
     21 C21       -11.1316   -3.4860   57.2672 C.2     1  ZINC000912668252   -0.0900
     22 C22        -9.7241   -3.6339   57.2953 C.ar    1  ZINC000912668252   -0.1000
     23 C23        -8.7666   -3.9119   56.3110 C.ar    1  ZINC000912668252   -0.0900
     24 C24        -7.4461   -3.9955   56.6523 C.ar    1  ZINC000912668252    0.0700
     25 F25        -6.5244   -4.2637   55.7016 F       1  ZINC000912668252   -0.1400
     26 C26        -7.0427   -3.8066   57.9699 C.ar    1  ZINC000912668252   -0.1100
     27 C27        -7.9662   -3.5329   58.9540 C.ar    1  ZINC000912668252   -0.1000
     28 C28        -9.3170   -3.4428   58.6304 C.ar    1  ZINC000912668252    0.1100
     29 N29       -10.4466   -3.1838   59.3715 N.pl3   1  ZINC000912668252   -0.5600
     30 C30       -10.9961    2.6196   61.2445 C.ar    1  ZINC000912668252   -0.0700
     31 H31       -12.6261    2.3602   65.4445 H       1  ZINC000912668252    0.0700
     32 H32       -11.4463    3.5399   66.0648 H       1  ZINC000912668252    0.0600
     33 H33       -12.2397    3.8155   64.4954 H       1  ZINC000912668252    0.0600
     34 H34       -10.3051    1.5435   65.1372 H       1  ZINC000912668252    0.0800
     35 H35       -11.0984    1.8191   63.5679 H       1  ZINC000912668252    0.0900
     36 H36        -7.6280    3.7297   64.3793 H       1  ZINC000912668252    0.0900
     37 H37        -8.7133    4.1878   65.7137 H       1  ZINC000912668252    0.0800
     38 H38        -8.8343    1.9855   66.5404 H       1  ZINC000912668252    0.0600
     39 H39        -8.3276    1.2731   64.9899 H       1  ZINC000912668252    0.0700
     40 H40        -7.1376    2.1087   66.0166 H       1  ZINC000912668252    0.0700
     41 H41       -11.8460    5.5917   62.6443 H       1  ZINC000912668252    0.1400
     42 H42       -13.7869    5.2830   61.1673 H       1  ZINC000912668252    0.1400
     43 H43       -13.9538    3.2840   59.7460 H       1  ZINC000912668252    0.1300
     44 H44       -11.4616    1.0713   59.0233 H       1  ZINC000912668252    0.4200
     45 H45       -14.3927   -0.6724   58.2726 H       1  ZINC000912668252    0.1100
     46 H46       -12.6323   -0.6403   58.0115 H       1  ZINC000912668252    0.1100
     47 H47       -11.7636   -3.5715   56.3956 H       1  ZINC000912668252    0.1700
     48 H48        -9.0713   -4.0599   55.2855 H       1  ZINC000912668252    0.1400
     49 H49        -5.9953   -3.8757   58.2237 H       1  ZINC000912668252    0.1400
     50 H50        -7.6434   -3.3885   59.9743 H       1  ZINC000912668252    0.1400
     51 H51       -10.4684   -3.0080   60.3252 H       1  ZINC000912668252    0.4300
     52 H52       -10.2163    1.8726   61.2663 H       1  ZINC000912668252    0.1400
@<TRIPOS>BOND
     1     1     2    1
     2     1    31    1
     3     1    32    1
     4     1    33    1
     5     2     3    1
     6     2    34    1
     7     2    35    1
     8     3     4    1
     9     3     6   am
    10     4     5    1
    11     4    36    1
    12     4    37    1
    13     5    38    1
    14     5    39    1
    15     5    40    1
    16     6     7    2
    17     6     8    1
    18     8    30   ar
    19     8     9   ar
    20     9    10   ar
    21     9    41    1
    22    10    11   ar
    23    10    42    1
    24    11    12   ar
    25    11    43    1
    26    12    13    1
    27    12    30   ar
    28    13    14   am
    29    13    44    1
    30    14    15    2
    31    14    16    1
    32    16    17    1
    33    16    45    1
    34    16    46    1
    35    17    18    1
    36    18    19    2
    37    18    20    1
    38    20    29    1
    39    20    21    2
    40    21    22    1
    41    21    47    1
    42    22    28   ar
    43    22    23   ar
    44    23    24   ar
    45    23    48    1
    46    24    25    1
    47    24    26   ar
    48    26    27   ar
    49    26    49    1
    50    27    28   ar
    51    27    50    1
    52    28    29    1
    53    29    51    1
    54    30    52    1
@<TRIPOS>SUBSTRUCTURE
     1 ZINC000912668252        1 TEMP              0 ****  ****    0 ROOT


##########                                Name:    ZINC000939075213
##########                DOCK_Rotatable_Bonds:                   7
##########                         Heavy_Atoms:                  24
##########                    Molecular_Weight:             327.426
##########                DOCK_Rotatable_Bonds:                   7
##########                       Formal_Charge:          -0.0200002
##########                     HBond_Acceptors:                   5
##########                        HBond_Donors:                   2
##########                         Heavy_Atoms:                  24
##########                          Grid_Score:          -31.349222
##########                     Grid_vdw_energy:          -28.282026
##########                      Grid_es_energy:           -3.067195
##########           Internal_energy_repulsive:            9.377522

@<TRIPOS>MOLECULE
ZINC000939075213
 49 51 1 0 0
SMALL
USER_CHARGES


@<TRIPOS>ATOM
      1 C1        -15.0867   -0.5743   60.1894 C.3     1  ZINC000939075213   -0.1400
      2 C2        -13.7330   -0.7111   59.4896 C.3     1  ZINC000939075213   -0.1100
      3 H3        -13.5961    0.0781   58.7503 H       1  ZINC000939075213    0.0900
      4 C4        -13.5814   -2.1104   58.8426 C.3     1  ZINC000939075213    0.1100
      5 N5        -12.1265   -2.3358   58.7674 N.am    1  ZINC000939075213   -0.6200
      6 C6        -11.5030   -3.1603   57.9025 C.2     1  ZINC000939075213    0.5600
      7 O7        -12.1524   -3.7982   57.0935 O.2     1  ZINC000939075213   -0.5400
      8 C8        -10.0936   -3.2847   57.9344 C.2     1  ZINC000939075213   -0.2600
      9 C9         -9.4254   -3.7088   56.8332 C.2     1  ZINC000939075213    0.0400
     10 C10        -8.0145   -3.8335   56.8649 C.2     1  ZINC000939075213    0.0000
     11 C11        -7.2116   -3.7560   57.9880 C.2     1  ZINC000939075213   -0.1500
     12 C12        -5.8920   -3.9344   57.5624 C.2     1  ZINC000939075213   -0.2200
     13 C13        -5.9080   -4.1136   56.2194 C.2     1  ZINC000939075213    0.0200
     14 N14        -7.1926   -4.0599   55.7837 N.pl3   1  ZINC000939075213   -0.5000
     15 C15       -11.4681   -1.5115   59.7915 C.3     1  ZINC000939075213    0.0900
     16 C16       -12.5725   -0.7157   60.5195 C.3     1  ZINC000939075213    0.1400
     17 H17       -12.8732   -1.2233   61.4360 H       1  ZINC000939075213    0.1100
     18 N18       -12.1236    0.6486   60.8081 N.am    1  ZINC000939075213   -0.7200
     19 C19       -12.3199    1.1778   62.0320 C.2     1  ZINC000939075213    0.5300
     20 O20       -12.8695    0.5252   62.8939 O.2     1  ZINC000939075213   -0.5300
     21 C21       -11.8565    2.5806   62.3294 C.3     1  ZINC000939075213   -0.0600
     22 C22       -12.9704    3.5845   62.0258 C.3     1  ZINC000939075213   -0.1300
     23 C23       -11.4192    2.6960   63.7712 C.2     1  ZINC000939075213   -0.1700
     24 C24       -10.2940    3.3500   63.8701 C.2     1  ZINC000939075213   -0.1400
     25 C25        -9.7932    3.7799   62.5110 C.3     1  ZINC000939075213   -0.1100
     26 C26       -10.5907    2.9156   61.5068 C.3     1  ZINC000939075213   -0.1100
     27 H27       -15.1346    0.3857   60.7036 H       1  ZINC000939075213    0.0600
     28 H28       -15.8854   -0.6304   59.4497 H       1  ZINC000939075213    0.0700
     29 H29       -15.2046   -1.3804   60.9134 H       1  ZINC000939075213    0.0600
     30 H30       -14.0513   -2.8701   59.4672 H       1  ZINC000939075213    0.0700
     31 H31       -14.0183   -2.1159   57.8440 H       1  ZINC000939075213    0.0800
     32 H32        -9.5504   -3.0419   58.8356 H       1  ZINC000939075213    0.1300
     33 H33        -9.9688   -3.9516   55.9319 H       1  ZINC000939075213    0.1500
     34 H34        -7.5417   -3.5888   59.0027 H       1  ZINC000939075213    0.1400
     35 H35        -5.0150   -3.9300   58.1926 H       1  ZINC000939075213    0.1400
     36 H36        -5.0402   -4.2763   55.5974 H       1  ZINC000939075213    0.1600
     37 H37        -7.4825   -4.1588   54.8633 H       1  ZINC000939075213    0.4100
     38 H38       -10.9428   -2.1512   60.5007 H       1  ZINC000939075213    0.0800
     39 H39       -10.7667   -0.8238   59.3192 H       1  ZINC000939075213    0.0700
     40 H40       -11.6850    1.1711   60.1185 H       1  ZINC000939075213    0.4000
     41 H41       -13.8449    3.3516   62.6335 H       1  ZINC000939075213    0.0600
     42 H42       -12.6249    4.5919   62.2573 H       1  ZINC000939075213    0.0700
     43 H43       -13.2354    3.5249   60.9701 H       1  ZINC000939075213    0.0600
     44 H44       -11.9662    2.2909   64.6097 H       1  ZINC000939075213    0.1300
     45 H45        -9.7877    3.5571   64.8013 H       1  ZINC000939075213    0.1300
     46 H46        -9.9982    4.8380   62.3478 H       1  ZINC000939075213    0.0800
     47 H47        -8.7255    3.5806   62.4192 H       1  ZINC000939075213    0.0800
     48 H48       -10.0416    2.0103   61.2474 H       1  ZINC000939075213    0.0900
     49 H49       -10.8441    3.4870   60.6138 H       1  ZINC000939075213    0.0800
@<TRIPOS>BOND
     1     1     2    1
     2     1    27    1
     3     1    28    1
     4     1    29    1
     5     2     3    1
     6     2    16    1
     7     2     4    1
     8     4     5    1
     9     4    30    1
    10     4    31    1
    11     5     6   am
    12     5    15    1
    13     6     7    2
    14     6     8    1
    15     8     9    2
    16     8    32    1
    17     9    10    1
    18     9    33    1
    19    10    14    1
    20    10    11    2
    21    11    12    1
    22    11    34    1
    23    12    13    2
    24    12    35    1
    25    13    14    1
    26    13    36    1
    27    14    37    1
    28    15    16    1
    29    15    38    1
    30    15    39    1
    31    16    17    1
    32    16    18    1
    33    18    19   am
    34    18    40    1
    35    19    20    2
    36    19    21    1
    37    21    26    1
    38    21    22    1
    39    21    23    1
    40    22    41    1
    41    22    42    1
    42    22    43    1
    43    23    24    2
    44    23    44    1
    45    24    25    1
    46    24    45    1
    47    25    26    1
    48    25    46    1
    49    25    47    1
    50    26    48    1
    51    26    49    1
@<TRIPOS>SUBSTRUCTURE
     1 ZINC000939075213        1 TEMP              0 ****  ****    0 ROOT


##########                                Name:    ZINC000182044395
##########                DOCK_Rotatable_Bonds:                   8
##########                         Heavy_Atoms:                  28
##########                    Molecular_Weight:             398.889
##########                DOCK_Rotatable_Bonds:                   8
##########                       Formal_Charge:          -0.0399999
##########                     HBond_Acceptors:                   6
##########                        HBond_Donors:                   2
##########                         Heavy_Atoms:                  28
##########                          Grid_Score:          -31.285896
##########                     Grid_vdw_energy:          -29.091551
##########                      Grid_es_energy:           -2.194346
##########           Internal_energy_repulsive:           23.118540

@<TRIPOS>MOLECULE
ZINC000182044395
 51 53 1 0 0
SMALL
USER_CHARGES


@<TRIPOS>ATOM
      1 C1        -14.5008   -3.1183   59.2397 C.3     1  ZINC000182044395   -0.1800
      2 C2        -13.8999   -1.8047   58.7355 C.3     1  ZINC000182044395    0.0800
      3 N3        -12.6659   -1.5179   59.4711 N.pl3   1  ZINC000182044395   -0.4800
      4 C4        -12.7200   -0.6739   60.5096 C.2     1  ZINC000182044395    0.2500
      5 C5        -11.6041   -0.3513   61.2539 C.2     1  ZINC000182044395   -0.3500
      6 C6        -11.7055    0.5802   62.3882 C.2     1  ZINC000182044395    0.5900
      7 O7        -12.7383    0.6506   63.0271 O.2     1  ZINC000182044395   -0.5600
      8 N8        -10.6541    1.3558   62.7193 N.am    1  ZINC000182044395   -0.7200
      9 C9        -10.7550    2.2834   63.8488 C.3     1  ZINC000182044395    0.1100
     10 H10       -11.7906    2.3355   64.1847 H       1  ZINC000182044395    0.0900
     11 C11        -9.8711    1.7888   64.9955 C.3     1  ZINC000182044395   -0.1600
     12 C12       -10.2906    3.6736   63.4099 C.3     1  ZINC000182044395    0.1100
     13 H13       -10.2610    4.3365   64.2747 H       1  ZINC000182044395    0.1100
     14 O14        -8.9852    3.5806   62.8361 O.3     1  ZINC000182044395   -0.5500
     15 C15       -11.2654    4.2328   62.3716 C.3     1  ZINC000182044395   -0.1100
     16 C16       -10.5713    4.3422   61.0386 C.ar    1  ZINC000182044395   -0.0800
     17 C17        -9.9054    5.5052   60.6994 C.ar    1  ZINC000182044395   -0.1000
     18 C18        -9.2689    5.6057   59.4764 C.ar    1  ZINC000182044395   -0.1200
     19 C19        -9.2978    4.5430   58.5928 C.ar    1  ZINC000182044395   -0.1200
     20 C20        -9.9678    3.3818   58.9299 C.ar    1  ZINC000182044395   -0.1200
     21 C21       -10.6009    3.2798   60.1546 C.ar    1  ZINC000182044395   -0.1200
     22 C22       -10.3098   -0.9496   60.8908 C.2     1  ZINC000182044395    0.4400
     23 O23        -9.2944   -0.6925   61.5135 O.2     1  ZINC000182044395   -0.4900
     24 C24       -10.2945   -1.8778   59.7447 C.ar    1  ZINC000182044395   -0.1800
     25 C25        -9.1142   -2.4957   59.3326 C.ar    1  ZINC000182044395   -0.0200
     26 C26        -9.1354   -3.3528   58.2531 C.ar    1  ZINC000182044395   -0.0700
     27 Cl27       -7.6701   -4.1254   57.7337 Cl      1  ZINC000182044395   -0.0500
     28 C28       -10.3241   -3.6012   57.5799 C.ar    1  ZINC000182044395   -0.0500
     29 C29       -11.4971   -2.9976   57.9772 C.ar    1  ZINC000182044395   -0.1600
     30 C30       -11.4986   -2.1280   59.0646 C.ar    1  ZINC000182044395    0.1900
     31 H31       -14.7236   -3.0313   60.3032 H       1  ZINC000182044395    0.0700
     32 H32       -15.4190   -3.3316   58.6925 H       1  ZINC000182044395    0.0800
     33 H33       -13.7879   -3.9277   59.0829 H       1  ZINC000182044395    0.0700
     34 H34       -14.6129   -0.9952   58.8923 H       1  ZINC000182044395    0.1000
     35 H35       -13.6772   -1.8917   57.6720 H       1  ZINC000182044395    0.1100
     36 H36       -13.6691   -0.2311   60.7735 H       1  ZINC000182044395    0.1800
     37 H37        -9.8306    1.2996   62.2099 H       1  ZINC000182044395    0.4100
     38 H38       -10.2020    0.7985   65.3081 H       1  ZINC000182044395    0.0600
     39 H39        -8.8355    1.7368   64.6596 H       1  ZINC000182044395    0.0600
     40 H40        -9.9462    2.4791   65.8358 H       1  ZINC000182044395    0.0600
     41 H41        -8.3963    2.9668   63.2960 H       1  ZINC000182044395    0.3700
     42 H42       -11.6051    5.2195   62.6865 H       1  ZINC000182044395    0.0800
     43 H43       -12.1224    3.5653   62.2814 H       1  ZINC000182044395    0.0800
     44 H44        -9.8825    6.3353   61.3899 H       1  ZINC000182044395    0.1200
     45 H45        -8.7490    6.5144   59.2113 H       1  ZINC000182044395    0.1200
     46 H46        -8.8005    4.6215   57.6373 H       1  ZINC000182044395    0.1200
     47 H47        -9.9941    2.5531   58.2378 H       1  ZINC000182044395    0.1200
     48 H48       -11.1214    2.3713   60.4194 H       1  ZINC000182044395    0.1200
     49 H49        -8.1891   -2.3038   59.8559 H       1  ZINC000182044395    0.1500
     50 H50       -10.3294   -4.2750   56.7359 H       1  ZINC000182044395    0.1500
     51 H51       -12.4152   -3.1992   57.4456 H       1  ZINC000182044395    0.1500
@<TRIPOS>BOND
     1     1     2    1
     2     1    31    1
     3     1    32    1
     4     1    33    1
     5     2     3    1
     6     2    34    1
     7     2    35    1
     8     3    30    1
     9     3     4    1
    10     4     5    2
    11     4    36    1
    12     5     6    1
    13     5    22    1
    14     6     7    2
    15     6     8   am
    16     8     9    1
    17     8    37    1
    18     9    10    1
    19     9    11    1
    20     9    12    1
    21    11    38    1
    22    11    39    1
    23    11    40    1
    24    12    13    1
    25    12    14    1
    26    12    15    1
    27    14    41    1
    28    15    16    1
    29    15    42    1
    30    15    43    1
    31    16    21   ar
    32    16    17   ar
    33    17    18   ar
    34    17    44    1
    35    18    19   ar
    36    18    45    1
    37    19    20   ar
    38    19    46    1
    39    20    21   ar
    40    20    47    1
    41    21    48    1
    42    22    23    2
    43    22    24    1
    44    24    30   ar
    45    24    25   ar
    46    25    26   ar
    47    25    49    1
    48    26    27    1
    49    26    28   ar
    50    28    29   ar
    51    28    50    1
    52    29    30   ar
    53    29    51    1
@<TRIPOS>SUBSTRUCTURE
     1 ZINC000182044395        1 TEMP              0 ****  ****    0 ROOT


##########                                Name:    ZINC000461678839
##########                DOCK_Rotatable_Bonds:                   6
##########                         Heavy_Atoms:                  28
##########                    Molecular_Weight:             404.939
##########                DOCK_Rotatable_Bonds:                   6
##########                       Formal_Charge:          -0.0200003
##########                     HBond_Acceptors:                   7
##########                        HBond_Donors:                   0
##########                         Heavy_Atoms:                  28
##########                          Grid_Score:          -31.278360
##########                     Grid_vdw_energy:          -32.225609
##########                      Grid_es_energy:            0.947248
##########           Internal_energy_repulsive:           11.673542

@<TRIPOS>MOLECULE
ZINC000461678839
 57 60 1 0 0
SMALL
USER_CHARGES


@<TRIPOS>ATOM
      1 C1        -14.3495    3.9730   64.1639 C.3     1  ZINC000461678839   -0.1500
      2 C2        -12.9199    3.5499   63.8200 C.3     1  ZINC000461678839   -0.0900
      3 H3        -12.2396    3.9546   64.5693 H       1  ZINC000461678839    0.0700
      4 C4        -12.5438    4.1235   62.4354 C.3     1  ZINC000461678839   -0.1100
      5 C5        -11.0460    4.0944   62.2870 C.3     1  ZINC000461678839   -0.1200
      6 C6        -10.5335    2.8011   61.6283 C.3     1  ZINC000461678839    0.0600
      7 N7        -11.2093    1.5826   62.1257 N.3     1  ZINC000461678839   -0.4600
      8 C8        -10.5396    0.4407   61.7156 C.2     1  ZINC000461678839    0.3700
      9 N9         -9.5509   -0.1515   62.3431 N.2     1  ZINC000461678839   -0.3100
     10 N10        -9.1693   -1.1843   61.6800 N.2     1  ZINC000461678839   -0.2500
     11 C11        -9.8858   -1.3112   60.5992 C.2     1  ZINC000461678839    0.1700
     12 C12        -9.7501   -2.3938   59.5596 C.3     1  ZINC000461678839    0.1500
     13 O13        -8.4284   -2.9352   59.6054 O.3     1  ZINC000461678839   -0.3100
     14 C14        -7.8612   -3.2793   58.4191 C.ar    1  ZINC000461678839    0.1400
     15 C15        -8.6626   -3.5825   57.3282 C.ar    1  ZINC000461678839   -0.2000
     16 C16        -8.0842   -3.9322   56.1233 C.ar    1  ZINC000461678839   -0.0700
     17 C17        -6.7066   -3.9805   56.0044 C.ar    1  ZINC000461678839   -0.0700
     18 Cl18       -5.9821   -4.4207   54.4894 Cl      1  ZINC000461678839   -0.0700
     19 C19        -5.9055   -3.6779   57.0912 C.ar    1  ZINC000461678839   -0.0700
     20 C20        -6.4801   -3.3223   58.2961 C.ar    1  ZINC000461678839   -0.1400
     21 N21       -10.7876   -0.2835   60.5860 N.pl3   1  ZINC000461678839   -0.4600
     22 C22       -11.8036   -0.0114   59.5662 C.3     1  ZINC000461678839    0.1200
     23 C23       -13.1594   -0.5345   60.0447 C.3     1  ZINC000461678839   -0.1400
     24 H24       -13.3437   -0.2280   61.0744 H       1  ZINC000461678839    0.0900
     25 C25       -13.2202   -2.0763   59.9193 C.3     1  ZINC000461678839   -0.1500
     26 C26       -14.6631   -2.3032   59.4009 C.3     1  ZINC000461678839    0.0500
     27 O27       -14.8775   -1.1922   58.5041 O.3     1  ZINC000461678839   -0.3700
     28 C28       -14.2873   -0.0327   59.1223 C.3     1  ZINC000461678839    0.0400
     29 C29       -11.4147    1.5767   63.5541 C.3     1  ZINC000461678839    0.0700
     30 C30       -12.8369    2.0937   63.8389 C.3     1  ZINC000461678839   -0.1100
     31 H31       -14.6157    3.5875   65.1481 H       1  ZINC000461678839    0.0500
     32 H32       -14.4149    5.0610   64.1700 H       1  ZINC000461678839    0.0500
     33 H33       -15.0363    3.5718   63.4186 H       1  ZINC000461678839    0.0600
     34 H34       -13.0001    3.5173   61.6528 H       1  ZINC000461678839    0.0700
     35 H35       -12.8985    5.1512   62.3572 H       1  ZINC000461678839    0.0700
     36 H36       -10.7369    4.9445   61.6789 H       1  ZINC000461678839    0.0800
     37 H37       -10.5935    4.1887   63.2742 H       1  ZINC000461678839    0.0700
     38 H38       -10.6883    2.8719   60.5517 H       1  ZINC000461678839    0.0700
     39 H39        -9.4643    2.7109   61.8202 H       1  ZINC000461678839    0.0500
     40 H40       -10.4735   -3.1838   59.7612 H       1  ZINC000461678839    0.0800
     41 H41        -9.9367   -1.9737   58.5713 H       1  ZINC000461678839    0.1000
     42 H42        -9.7380   -3.5457   57.4207 H       1  ZINC000461678839    0.1400
     43 H43        -8.7078   -4.1684   55.2737 H       1  ZINC000461678839    0.1400
     44 H44        -4.8304   -3.7158   56.9965 H       1  ZINC000461678839    0.1400
     45 H45        -5.8546   -3.0861   59.1443 H       1  ZINC000461678839    0.1400
     46 H46       -11.8685    1.0633   59.3956 H       1  ZINC000461678839    0.1100
     47 H47       -11.5287   -0.5107   58.6372 H       1  ZINC000461678839    0.1000
     48 H48       -12.4866   -2.4372   59.1984 H       1  ZINC000461678839    0.0800
     49 H49       -13.0763   -2.5515   60.8896 H       1  ZINC000461678839    0.0900
     50 H50       -14.7337   -3.2492   58.8638 H       1  ZINC000461678839    0.1000
     51 H51       -15.3761   -2.2744   60.2249 H       1  ZINC000461678839    0.0600
     52 H52       -15.0386    0.4989   59.7062 H       1  ZINC000461678839    0.0500
     53 H53       -13.8750    0.6257   58.3577 H       1  ZINC000461678839    0.1100
     54 H54       -11.3091    0.5614   63.9362 H       1  ZINC000461678839    0.0900
     55 H55       -10.6836    2.2279   64.0330 H       1  ZINC000461678839    0.0600
     56 H56       -13.1512    1.7372   64.8199 H       1  ZINC000461678839    0.0700
     57 H57       -13.5152    1.6911   63.0865 H       1  ZINC000461678839    0.0700
@<TRIPOS>BOND
     1     1     2    1
     2     1    31    1
     3     1    32    1
     4     1    33    1
     5     2     3    1
     6     2    30    1
     7     2     4    1
     8     4     5    1
     9     4    34    1
    10     4    35    1
    11     5     6    1
    12     5    36    1
    13     5    37    1
    14     6     7    1
    15     6    38    1
    16     6    39    1
    17     7     8    1
    18     7    29    1
    19     8    21    1
    20     8     9    2
    21     9    10    1
    22    10    11    2
    23    11    12    1
    24    11    21    1
    25    12    13    1
    26    12    40    1
    27    12    41    1
    28    13    14    1
    29    14    20   ar
    30    14    15   ar
    31    15    16   ar
    32    15    42    1
    33    16    17   ar
    34    16    43    1
    35    17    18    1
    36    17    19   ar
    37    19    20   ar
    38    19    44    1
    39    20    45    1
    40    21    22    1
    41    22    23    1
    42    22    46    1
    43    22    47    1
    44    23    24    1
    45    23    28    1
    46    23    25    1
    47    25    26    1
    48    25    48    1
    49    25    49    1
    50    26    27    1
    51    26    50    1
    52    26    51    1
    53    27    28    1
    54    28    52    1
    55    28    53    1
    56    29    30    1
    57    29    54    1
    58    29    55    1
    59    30    56    1
    60    30    57    1
@<TRIPOS>SUBSTRUCTURE
     1 ZINC000461678839        1 TEMP              0 ****  ****    0 ROOT


##########                                Name:    ZINC000822206030
##########                DOCK_Rotatable_Bonds:                   7
##########                         Heavy_Atoms:                  29
##########                    Molecular_Weight:             391.448
##########                DOCK_Rotatable_Bonds:                   7
##########                       Formal_Charge:         -0.00999995
##########                     HBond_Acceptors:                   7
##########                        HBond_Donors:                   1
##########                         Heavy_Atoms:                  29
##########                          Grid_Score:          -31.257517
##########                     Grid_vdw_energy:          -31.452200
##########                      Grid_es_energy:            0.194684
##########           Internal_energy_repulsive:           27.141516

@<TRIPOS>MOLECULE
ZINC000822206030
 51 55 1 0 0
SMALL
USER_CHARGES


@<TRIPOS>ATOM
      1 C1        -12.7233   -0.1119   59.0966 C.3     1  ZINC000822206030   -0.1300
      2 C2        -11.5068   -1.0015   59.1002 C.ar    1  ZINC000822206030   -0.0400
      3 C3        -11.4865   -2.1473   58.3297 C.ar    1  ZINC000822206030   -0.1500
      4 C4        -10.3690   -2.9654   58.3331 C.ar    1  ZINC000822206030    0.1100
      5 F5        -10.3511   -4.0861   57.5789 F       1  ZINC000822206030   -0.1400
      6 C6         -9.2698   -2.6360   59.1080 C.ar    1  ZINC000822206030   -0.1500
      7 C7         -9.2863   -1.4908   59.8802 C.ar    1  ZINC000822206030   -0.0800
      8 C8        -10.4034   -0.6666   59.8741 C.ar    1  ZINC000822206030    0.1100
      9 N9        -10.4220    0.4951   60.6557 N.am    1  ZINC000822206030   -0.5600
     10 C10       -11.1242    0.5018   61.9415 C.3     1  ZINC000822206030    0.1500
     11 C11       -10.1224    0.6267   63.0603 C.ar    1  ZINC000822206030   -0.0900
     12 C12        -9.0663   -0.2627   63.1421 C.ar    1  ZINC000822206030   -0.1000
     13 C13        -8.1457   -0.1526   64.1646 C.ar    1  ZINC000822206030   -0.0800
     14 C14        -8.2816    0.8567   65.1151 C.ar    1  ZINC000822206030   -0.0100
     15 C15        -7.2942    0.9803   66.2168 C.2     1  ZINC000822206030    0.2200
     16 N16        -6.2403    0.2150   66.4191 N.2     1  ZINC000822206030   -0.2900
     17 N17        -5.6382    0.6440   67.4747 N.pl3   1  ZINC000822206030   -0.2300
     18 N18        -6.2770    1.6566   67.9474 N.2     1  ZINC000822206030   -0.0500
     19 N19        -7.2979    1.8957   67.1961 N.2     1  ZINC000822206030   -0.2700
     20 C20        -9.3471    1.7497   65.0280 C.ar    1  ZINC000822206030   -0.0800
     21 C21       -10.2591    1.6338   63.9985 C.ar    1  ZINC000822206030   -0.0900
     22 C22        -9.7938    1.6071   60.2252 C.2     1  ZINC000822206030    0.5500
     23 O23        -9.2111    1.6012   59.1615 O.2     1  ZINC000822206030   -0.5000
     24 C24        -9.8154    2.8579   61.0656 C.3     1  ZINC000822206030   -0.1900
     25 H25        -9.2257    2.8191   61.9814 H       1  ZINC000822206030    0.1200
     26 C26       -11.1136    3.6669   61.0950 C.3     1  ZINC000822206030   -0.1400
     27 C27        -9.8967    4.1992   60.3340 C.3     1  ZINC000822206030   -0.0900
     28 H28        -9.3608    5.0430   60.7687 H       1  ZINC000822206030    0.1100
     29 C29        -9.9506    4.1686   58.8053 C.3     1  ZINC000822206030   -0.1100
     30 C30       -10.0310    5.5102   58.0742 C.3     1  ZINC000822206030   -0.2000
     31 C31        -8.7338    4.6994   58.0447 C.3     1  ZINC000822206030   -0.1200
     32 H32       -12.6255    0.6342   58.3080 H       1  ZINC000822206030    0.0900
     33 H33       -13.6137   -0.7147   58.9179 H       1  ZINC000822206030    0.0700
     34 H34       -12.8106    0.3882   60.0611 H       1  ZINC000822206030    0.0700
     35 H35       -12.3426   -2.4057   57.7243 H       1  ZINC000822206030    0.1400
     36 H36        -8.3992   -3.2751   59.1090 H       1  ZINC000822206030    0.1400
     37 H37        -8.4289   -1.2343   60.4847 H       1  ZINC000822206030    0.1400
     38 H38       -11.8132    1.3458   61.9747 H       1  ZINC000822206030    0.1000
     39 H39       -11.6823   -0.4276   62.0554 H       1  ZINC000822206030    0.0900
     40 H40        -8.9621   -1.0451   62.4049 H       1  ZINC000822206030    0.1300
     41 H41        -7.3216   -0.8477   64.2277 H       1  ZINC000822206030    0.1400
     42 H42        -4.8305    0.2633   67.8537 H       1  ZINC000822206030    0.4800
     43 H43        -9.4573    2.5338   65.7626 H       1  ZINC000822206030    0.1300
     44 H44       -11.0856    2.3257   63.9299 H       1  ZINC000822206030    0.1400
     45 H45       -11.9520    3.2945   60.5065 H       1  ZINC000822206030    0.1000
     46 H46       -11.3778    4.1608   62.0301 H       1  ZINC000822206030    0.1000
     47 H47       -10.4871    3.3252   58.3706 H       1  ZINC000822206030    0.1000
     48 H48       -10.6207    5.5497   57.1583 H       1  ZINC000822206030    0.0900
     49 H49       -10.0456    6.4146   58.6822 H       1  ZINC000822206030    0.0900
     50 H50        -7.8949    5.0707   58.6335 H       1  ZINC000822206030    0.0800
     51 H51        -8.4701    4.2057   57.1095 H       1  ZINC000822206030    0.0900
@<TRIPOS>BOND
     1     1     2    1
     2     1    32    1
     3     1    33    1
     4     1    34    1
     5     2     8   ar
     6     2     3   ar
     7     3     4   ar
     8     3    35    1
     9     4     5    1
    10     4     6   ar
    11     6     7   ar
    12     6    36    1
    13     7     8   ar
    14     7    37    1
    15     8     9    1
    16     9    10    1
    17     9    22   am
    18    10    11    1
    19    10    38    1
    20    10    39    1
    21    11    21   ar
    22    11    12   ar
    23    12    13   ar
    24    12    40    1
    25    13    14   ar
    26    13    41    1
    27    14    15    1
    28    14    20   ar
    29    15    19    1
    30    15    16    2
    31    16    17    1
    32    17    18    1
    33    17    42    1
    34    18    19    2
    35    20    21   ar
    36    20    43    1
    37    21    44    1
    38    22    23    2
    39    22    24    1
    40    24    25    1
    41    24    27    1
    42    24    26    1
    43    26    27    1
    44    26    45    1
    45    26    46    1
    46    27    28    1
    47    27    29    1
    48    29    31    1
    49    29    30    1
    50    29    47    1
    51    30    31    1
    52    30    48    1
    53    30    49    1
    54    31    50    1
    55    31    51    1
@<TRIPOS>SUBSTRUCTURE
     1 ZINC000822206030        1 TEMP              0 ****  ****    0 ROOT


##########                                Name:    ZINC001217683559
##########                DOCK_Rotatable_Bonds:                   3
##########                         Heavy_Atoms:                  25
##########                    Molecular_Weight:             397.234
##########                DOCK_Rotatable_Bonds:                   3
##########                       Formal_Charge:          0.00999987
##########                     HBond_Acceptors:                   7
##########                        HBond_Donors:                   0
##########                         Heavy_Atoms:                  25
##########                          Grid_Score:          -31.252966
##########                     Grid_vdw_energy:          -30.404749
##########                      Grid_es_energy:           -0.848217
##########           Internal_energy_repulsive:           31.797951

@<TRIPOS>MOLECULE
ZINC001217683559
 38 42 1 0 0
SMALL
USER_CHARGES


@<TRIPOS>ATOM
      1 Br1        -6.6313    0.8032   66.3843 Br      1  ZINC001217683559    0.0100
      2 C2         -8.0394    2.0654   66.3795 C.ar    1  ZINC001217683559   -0.1200
      3 C3         -8.1081    3.0455   67.3567 C.ar    1  ZINC001217683559   -0.0500
      4 C4         -9.1586    3.9501   67.3137 C.ar    1  ZINC001217683559   -0.1500
      5 C5        -10.1000    3.8490   66.3051 C.ar    1  ZINC001217683559    0.1200
      6 N6        -10.0112    2.9072   65.3888 N.ar    1  ZINC001217683559   -0.4400
      7 C7         -9.0197    2.0268   65.3898 C.ar    1  ZINC001217683559    0.2200
      8 C8         -8.9611    0.9824   64.3360 C.2     1  ZINC001217683559    0.2100
      9 N9         -8.0461    0.0556   64.2139 N.2     1  ZINC001217683559   -0.3300
     10 O10        -8.2801   -0.6439   63.2513 O.3     1  ZINC001217683559    0.1000
     11 C11        -9.4002   -0.2239   62.6424 C.2     1  ZINC001217683559    0.2300
     12 C12       -10.0197   -0.8109   61.4365 C.2     1  ZINC001217683559   -0.0600
     13 C13       -11.2462   -0.3782   61.0178 C.2     1  ZINC001217683559    0.1800
     14 N14       -11.8220   -0.9116   59.9120 N.pl3   1  ZINC001217683559   -0.2900
     15 N15       -13.0400   -0.6752   59.2585 N.2     1  ZINC001217683559   -0.3300
     16 C16       -13.0864   -1.4831   58.2257 C.2     1  ZINC001217683559    0.2800
     17 C17       -14.2227   -1.5666   57.2393 C.3     1  ZINC001217683559   -0.0300
     18 C18       -13.8989   -2.4130   55.9969 C.3     1  ZINC001217683559   -0.1200
     19 C19       -15.3314   -2.9634   56.0952 C.3     1  ZINC001217683559   -0.1400
     20 C20       -15.2709   -2.6338   57.5962 C.3     1  ZINC001217683559   -0.1200
     21 N21       -11.9812   -2.2140   58.1814 N.2     1  ZINC001217683559   -0.5300
     22 C22       -11.1891   -1.8896   59.1964 C.2     1  ZINC001217683559    0.2900
     23 C23        -9.9238   -2.3535   59.6060 C.2     1  ZINC001217683559   -0.1000
     24 C24        -9.3412   -1.8178   60.7101 C.2     1  ZINC001217683559   -0.0200
     25 N25        -9.8452    0.8109   63.3312 N.2     1  ZINC001217683559   -0.4300
     26 H26        -7.3608    3.1034   68.1342 H       1  ZINC001217683559    0.1600
     27 H27        -9.2411    4.7257   68.0607 H       1  ZINC001217683559    0.1500
     28 H28       -10.9192    4.5518   66.2689 H       1  ZINC001217683559    0.1800
     29 H29       -11.7605    0.3934   61.5714 H       1  ZINC001217683559    0.1900
     30 H30       -14.6531   -0.5929   57.0059 H       1  ZINC001217683559    0.1200
     31 H31       -13.7194   -1.8205   55.0997 H       1  ZINC001217683559    0.0700
     32 H32       -13.1293   -3.1653   56.1695 H       1  ZINC001217683559    0.1000
     33 H33       -16.0651   -2.3717   55.5476 H       1  ZINC001217683559    0.0800
     34 H34       -15.4046   -4.0304   55.8851 H       1  ZINC001217683559    0.0800
     35 H35       -14.8763   -3.4466   58.2060 H       1  ZINC001217683559    0.0900
     36 H36       -16.1990   -2.2198   57.9901 H       1  ZINC001217683559    0.0700
     37 H37        -9.4193   -3.1260   59.0448 H       1  ZINC001217683559    0.1700
     38 H38        -8.3714   -2.1638   61.0358 H       1  ZINC001217683559    0.1700
@<TRIPOS>BOND
     1     1     2    1
     2     2     7   ar
     3     2     3   ar
     4     3     4   ar
     5     3    26    1
     6     4     5   ar
     7     4    27    1
     8     5     6   ar
     9     5    28    1
    10     6     7   ar
    11     7     8    1
    12     8    25    1
    13     8     9    2
    14     9    10    1
    15    10    11    1
    16    11    12    1
    17    11    25    2
    18    12    24    1
    19    12    13    2
    20    13    14    1
    21    13    29    1
    22    14    22    1
    23    14    15    1
    24    15    16    2
    25    16    17    1
    26    16    21    1
    27    17    20    1
    28    17    18    1
    29    17    30    1
    30    18    19    1
    31    18    31    1
    32    18    32    1
    33    19    20    1
    34    19    33    1
    35    19    34    1
    36    20    35    1
    37    20    36    1
    38    21    22    2
    39    22    23    1
    40    23    24    2
    41    23    37    1
    42    24    38    1
@<TRIPOS>SUBSTRUCTURE
     1 ZINC001217683559        1 TEMP              0 ****  ****    0 ROOT


##########                                Name:    ZINC000484900616
##########                DOCK_Rotatable_Bonds:                  10
##########                         Heavy_Atoms:                  29
##########                    Molecular_Weight:             415.556
##########                DOCK_Rotatable_Bonds:                  10
##########                       Formal_Charge:        -1.49012e-08
##########                     HBond_Acceptors:                   7
##########                        HBond_Donors:                   1
##########                         Heavy_Atoms:                  29
##########                          Grid_Score:          -31.169691
##########                     Grid_vdw_energy:          -30.232357
##########                      Grid_es_energy:           -0.937333
##########           Internal_energy_repulsive:           24.261730

@<TRIPOS>MOLECULE
ZINC000484900616
 58 60 1 0 0
SMALL
USER_CHARGES


@<TRIPOS>ATOM
      1 C1         -8.4161    3.4422   51.9504 C.3     1  ZINC000484900616   -0.1500
      2 C2         -7.1141    3.8789   52.6250 C.3     1  ZINC000484900616    0.0600
      3 O3         -7.2581    3.7772   54.0662 O.3     1  ZINC000484900616   -0.3400
      4 C4         -6.1507    3.9796   54.8077 C.2     1  ZINC000484900616    0.5500
      5 O5         -5.0812    4.1717   54.2628 O.2     1  ZINC000484900616   -0.5000
      6 C6         -6.2363    3.9680   56.2763 C.2     1  ZINC000484900616    0.0200
      7 C7         -5.1640    4.1467   57.0814 C.2     1  ZINC000484900616   -0.2400
      8 S8         -5.6775    4.0657   58.7099 S.3     1  ZINC000484900616    0.2900
      9 C9         -7.2922    3.7981   58.2229 C.2     1  ZINC000484900616    0.0300
     10 C10        -8.4527    3.6088   59.1658 C.3     1  ZINC000484900616    0.1500
     11 H11        -8.4837    2.5807   59.5265 H       1  ZINC000484900616    0.0900
     12 C12        -8.3469    4.5949   60.3557 C.3     1  ZINC000484900616   -0.1200
     13 C13        -9.8273    4.7004   60.8077 C.3     1  ZINC000484900616   -0.1400
     14 C14       -10.6038    4.6207   59.4765 C.3     1  ZINC000484900616    0.0500
     15 N15        -9.7231    3.9576   58.4949 N.3     1  ZINC000484900616   -0.5100
     16 C16       -10.3688    2.7656   57.9292 C.3     1  ZINC000484900616    0.0300
     17 C17       -11.1053    2.0286   59.0181 C.2     1  ZINC000484900616    0.5200
     18 O18       -12.3179    2.0111   59.0254 O.2     1  ZINC000484900616   -0.5100
     19 N19       -10.4163    1.3889   59.9837 N.am    1  ZINC000484900616   -0.7300
     20 C20       -11.1322    0.6710   61.0413 C.3     1  ZINC000484900616    0.1900
     21 H21       -12.0373    1.2186   61.3037 H       1  ZINC000484900616    0.1000
     22 C22       -11.5075   -0.7267   60.5447 C.3     1  ZINC000484900616   -0.1600
     23 C23       -10.2473    0.5519   62.2553 C.ar    1  ZINC000484900616   -0.1000
     24 C24       -10.6495    1.0978   63.4600 C.ar    1  ZINC000484900616   -0.1100
     25 C25        -9.8378    0.9886   64.5736 C.ar    1  ZINC000484900616   -0.1100
     26 C26        -8.6242    0.3330   64.4827 C.ar    1  ZINC000484900616   -0.0800
     27 C27        -7.7392    0.2142   65.6966 C.3     1  ZINC000484900616   -0.0900
     28 C28        -7.4905    1.6047   66.2845 C.3     1  ZINC000484900616   -0.1500
     29 C29        -8.2227   -0.2142   63.2784 C.ar    1  ZINC000484900616   -0.1100
     30 C30        -9.0361   -0.1082   62.1657 C.ar    1  ZINC000484900616   -0.1000
     31 N31        -7.3814    3.7856   56.9399 N.2     1  ZINC000484900616   -0.4300
     32 H32        -8.6374    2.4099   52.2216 H       1  ZINC000484900616    0.0700
     33 H33        -9.2304    4.0872   52.2805 H       1  ZINC000484900616    0.0700
     34 H34        -8.3080    3.5185   50.8684 H       1  ZINC000484900616    0.0800
     35 H35        -6.2998    3.2339   52.2948 H       1  ZINC000484900616    0.0700
     36 H36        -6.8927    4.9111   52.3538 H       1  ZINC000484900616    0.0700
     37 H37        -4.1498    4.3133   56.7498 H       1  ZINC000484900616    0.1900
     38 H38        -7.7245    4.1829   61.1502 H       1  ZINC000484900616    0.0900
     39 H39        -7.9689    5.5632   60.0280 H       1  ZINC000484900616    0.0800
     40 H40       -10.0918    3.8669   61.4586 H       1  ZINC000484900616    0.0700
     41 H41       -10.0116    5.6526   61.3050 H       1  ZINC000484900616    0.0800
     42 H42       -11.5129    4.0349   59.6119 H       1  ZINC000484900616    0.0600
     43 H43       -10.8545    5.6243   59.1329 H       1  ZINC000484900616    0.0900
     44 H44       -11.0733    3.0672   57.1541 H       1  ZINC000484900616    0.1100
     45 H45        -9.6107    2.1124   57.4969 H       1  ZINC000484900616    0.0700
     46 H46        -9.4464    1.4039   59.9786 H       1  ZINC000484900616    0.4000
     47 H47       -12.0401   -1.2609   61.3315 H       1  ZINC000484900616    0.0700
     48 H48       -12.1476   -0.6406   59.6666 H       1  ZINC000484900616    0.0700
     49 H49       -10.6024   -1.2743   60.2823 H       1  ZINC000484900616    0.0600
     50 H50       -11.5976    1.6101   63.5310 H       1  ZINC000484900616    0.1200
     51 H51       -10.1517    1.4158   65.5146 H       1  ZINC000484900616    0.1200
     52 H52        -8.2273   -0.4135   66.4421 H       1  ZINC000484900616    0.0700
     53 H53        -6.7880   -0.2346   65.4102 H       1  ZINC000484900616    0.0700
     54 H54        -7.0023    2.2324   65.5390 H       1  ZINC000484900616    0.0600
     55 H55        -8.4416    2.0535   66.5709 H       1  ZINC000484900616    0.0600
     56 H56        -6.8503    1.5187   67.1625 H       1  ZINC000484900616    0.0600
     57 H57        -7.2747   -0.7267   63.2075 H       1  ZINC000484900616    0.1200
     58 H58        -8.7224   -0.5358   61.2248 H       1  ZINC000484900616    0.1200
@<TRIPOS>BOND
     1     1     2    1
     2     1    32    1
     3     1    33    1
     4     1    34    1
     5     2     3    1
     6     2    35    1
     7     2    36    1
     8     3     4    1
     9     4     5    2
    10     4     6    1
    11     6    31    1
    12     6     7    2
    13     7     8    1
    14     7    37    1
    15     8     9    1
    16     9    10    1
    17     9    31    2
    18    10    11    1
    19    10    15    1
    20    10    12    1
    21    12    13    1
    22    12    38    1
    23    12    39    1
    24    13    14    1
    25    13    40    1
    26    13    41    1
    27    14    15    1
    28    14    42    1
    29    14    43    1
    30    15    16    1
    31    16    17    1
    32    16    44    1
    33    16    45    1
    34    17    18    2
    35    17    19   am
    36    19    20    1
    37    19    46    1
    38    20    21    1
    39    20    22    1
    40    20    23    1
    41    22    47    1
    42    22    48    1
    43    22    49    1
    44    23    30   ar
    45    23    24   ar
    46    24    25   ar
    47    24    50    1
    48    25    26   ar
    49    25    51    1
    50    26    27    1
    51    26    29   ar
    52    27    28    1
    53    27    52    1
    54    27    53    1
    55    28    54    1
    56    28    55    1
    57    28    56    1
    58    29    30   ar
    59    29    57    1
    60    30    58    1
@<TRIPOS>SUBSTRUCTURE
     1 ZINC000484900616        1 TEMP              0 ****  ****    0 ROOT


##########                                Name:    ZINC000437192871
##########                DOCK_Rotatable_Bonds:                   9
##########                         Heavy_Atoms:                  28
##########                    Molecular_Weight:             423.298
##########                DOCK_Rotatable_Bonds:                   9
##########                       Formal_Charge:         -8.9407e-08
##########                     HBond_Acceptors:                   9
##########                        HBond_Donors:                   1
##########                         Heavy_Atoms:                  28
##########                          Grid_Score:          -31.117655
##########                     Grid_vdw_energy:          -27.516487
##########                      Grid_es_energy:           -3.601167
##########           Internal_energy_repulsive:           15.262427

@<TRIPOS>MOLECULE
ZINC000437192871
 48 50 1 0 0
SMALL
USER_CHARGES


@<TRIPOS>ATOM
      1 C1         -6.2777    1.4883   66.9677 C.3     1  ZINC000437192871   -0.1700
      2 C2         -6.6219    0.1409   66.3297 C.3     1  ZINC000437192871    0.1300
      3 N3         -7.8139    0.2881   65.4907 N.pl3   1  ZINC000437192871   -0.3600
      4 C4         -8.8195    1.1662   65.6872 C.2     1  ZINC000437192871    0.0700
      5 C5         -9.7249    0.9846   64.6981 C.2     1  ZINC000437192871   -0.2700
      6 C6        -11.0102    1.7511   64.5209 C.3     1  ZINC000437192871    0.1900
      7 N7        -11.1115    2.2215   63.1372 N.am    1  ZINC000437192871   -0.6000
      8 C8        -10.0053    2.9699   62.5351 C.3     1  ZINC000437192871    0.1100
      9 C9        -10.0016    4.4001   63.0787 C.3     1  ZINC000437192871    0.0600
     10 O10        -9.2549    4.4451   64.2962 O.3     1  ZINC000437192871   -0.5600
     11 C11       -12.2223    1.9657   62.4181 C.2     1  ZINC000437192871    0.6000
     12 O12       -13.1405    1.3442   62.9178 O.2     1  ZINC000437192871   -0.5000
     13 C13       -12.3241    2.4386   61.0270 C.2     1  ZINC000437192871   -0.2200
     14 C14       -12.7726    3.6505   60.5659 C.2     1  ZINC000437192871    0.0100
     15 C15       -13.2756    4.8014   61.3988 C.3     1  ZINC000437192871   -0.0800
     16 O16       -12.6757    3.6109   59.2350 O.3     1  ZINC000437192871    0.1100
     17 N17       -12.2392    2.5665   58.8174 N.2     1  ZINC000437192871   -0.3200
     18 C18       -11.9620    1.7274   59.7830 C.2     1  ZINC000437192871    0.0800
     19 C19       -11.4123    0.3562   59.6557 C.ar    1  ZINC000437192871   -0.0200
     20 C20       -10.0576    0.1220   59.8842 C.ar    1  ZINC000437192871   -0.0700
     21 C21        -9.5508   -1.1559   59.7651 C.ar    1  ZINC000437192871   -0.1000
     22 C22       -10.3852   -2.2052   59.4191 C.ar    1  ZINC000437192871   -0.0100
     23 Cl23       -9.7405   -3.8104   59.2716 Cl      1  ZINC000437192871   -0.0500
     24 C24       -11.7317   -1.9792   59.1908 C.ar    1  ZINC000437192871   -0.1100
     25 C25       -12.2504   -0.7052   59.3125 C.ar    1  ZINC000437192871    0.0000
     26 Cl26      -13.9392   -0.4225   59.0265 Cl      1  ZINC000437192871   -0.0300
     27 C27        -9.2565   -0.0397   63.8687 C.2     1  ZINC000437192871    0.0600
     28 N28        -8.1082   -0.4539   64.3395 N.2     1  ZINC000437192871   -0.2900
     29 H29        -5.3909    1.3787   67.5919 H       1  ZINC000437192871    0.0800
     30 H30        -6.0830    2.2217   66.1851 H       1  ZINC000437192871    0.0600
     31 H31        -7.1142    1.8244   67.5805 H       1  ZINC000437192871    0.0700
     32 H32        -5.7855   -0.1952   65.7168 H       1  ZINC000437192871    0.1000
     33 H33        -6.8168   -0.5924   67.1122 H       1  ZINC000437192871    0.0900
     34 H34        -8.8894    1.8850   66.4902 H       1  ZINC000437192871    0.1600
     35 H35       -11.8553    1.1004   64.7462 H       1  ZINC000437192871    0.0900
     36 H36       -11.0196    2.6060   65.1970 H       1  ZINC000437192871    0.0800
     37 H37        -9.0611    2.4847   62.7827 H       1  ZINC000437192871    0.1000
     38 H38       -10.1290    2.9930   61.4524 H       1  ZINC000437192871    0.1000
     39 H39        -9.5439    5.0657   62.3469 H       1  ZINC000437192871    0.0600
     40 H40       -11.0264    4.7191   63.2690 H       1  ZINC000437192871    0.0500
     41 H41        -9.6060    3.8755   64.9943 H       1  ZINC000437192871    0.3800
     42 H42       -12.4604    5.5016   61.5809 H       1  ZINC000437192871    0.1000
     43 H43       -14.0799    5.3102   60.8674 H       1  ZINC000437192871    0.0900
     44 H44       -13.6503    4.4246   62.3505 H       1  ZINC000437192871    0.0900
     45 H45        -9.4054    0.9395   60.1539 H       1  ZINC000437192871    0.1600
     46 H46        -8.5010   -1.3379   59.9418 H       1  ZINC000437192871    0.1500
     47 H47       -12.3783   -2.8011   58.9212 H       1  ZINC000437192871    0.1500
     48 H48        -9.7544   -0.4196   62.9889 H       1  ZINC000437192871    0.1800
@<TRIPOS>BOND
     1     1     2    1
     2     1    29    1
     3     1    30    1
     4     1    31    1
     5     2     3    1
     6     2    32    1
     7     2    33    1
     8     3    28    1
     9     3     4    1
    10     4     5    2
    11     4    34    1
    12     5     6    1
    13     5    27    1
    14     6     7    1
    15     6    35    1
    16     6    36    1
    17     7     8    1
    18     7    11   am
    19     8     9    1
    20     8    37    1
    21     8    38    1
    22     9    10    1
    23     9    39    1
    24     9    40    1
    25    10    41    1
    26    11    12    2
    27    11    13    1
    28    13    18    1
    29    13    14    2
    30    14    15    1
    31    14    16    1
    32    15    42    1
    33    15    43    1
    34    15    44    1
    35    16    17    1
    36    17    18    2
    37    18    19    1
    38    19    25   ar
    39    19    20   ar
    40    20    21   ar
    41    20    45    1
    42    21    22   ar
    43    21    46    1
    44    22    23    1
    45    22    24   ar
    46    24    25   ar
    47    24    47    1
    48    25    26    1
    49    27    28    2
    50    27    48    1
@<TRIPOS>SUBSTRUCTURE
     1 ZINC000437192871        1 TEMP              0 ****  ****    0 ROOT


##########                                Name:    ZINC000809503567
##########                DOCK_Rotatable_Bonds:                   9
##########                         Heavy_Atoms:                  26
##########                    Molecular_Weight:             353.378
##########                DOCK_Rotatable_Bonds:                   9
##########                       Formal_Charge:          -0.0200002
##########                     HBond_Acceptors:                   7
##########                        HBond_Donors:                   1
##########                         Heavy_Atoms:                  26
##########                          Grid_Score:          -31.117481
##########                     Grid_vdw_energy:          -30.738939
##########                      Grid_es_energy:           -0.378541
##########           Internal_energy_repulsive:           20.104139

@<TRIPOS>MOLECULE
ZINC000809503567
 45 46 1 0 0
SMALL
USER_CHARGES


@<TRIPOS>ATOM
      1 C1        -10.3384    2.8761   64.9596 C.3     1  ZINC000809503567    0.0200
      2 O2         -9.9469    1.5082   65.0924 O.3     1  ZINC000809503567   -0.3100
      3 C3         -9.7701    0.8039   63.9459 C.ar    1  ZINC000809503567    0.1900
      4 C4        -10.5373    1.0901   62.8278 C.ar    1  ZINC000809503567   -0.2100
      5 C5        -10.3564    0.3724   61.6613 C.ar    1  ZINC000809503567   -0.0200
      6 C6         -9.4100   -0.6366   61.5992 C.ar    1  ZINC000809503567   -0.1500
      7 C7         -9.2231   -1.4122   60.3207 C.3     1  ZINC000809503567    0.1700
      8 N8        -10.4819   -1.4294   59.5715 N.am    1  ZINC000809503567   -0.7000
      9 C9        -10.7441   -2.4386   58.7175 C.2     1  ZINC000809503567    0.5100
     10 O10        -9.9368   -3.3322   58.5681 O.2     1  ZINC000809503567   -0.4900
     11 C11       -12.0290   -2.4571   57.9546 C.2     1  ZINC000809503567    0.5100
     12 O12       -12.0190   -2.3443   56.7463 O.2     1  ZINC000809503567   -0.5000
     13 N13       -13.1990   -2.5990   58.6084 N.am    1  ZINC000809503567   -0.4600
     14 C14       -13.2110   -2.7369   60.0668 C.3     1  ZINC000809503567    0.0800
     15 O15       -14.4165   -2.6148   57.8856 O.3     1  ZINC000809503567   -0.1100
     16 C16       -15.5329   -2.1031   58.6163 C.3     1  ZINC000809503567    0.0800
     17 C17       -15.2650   -0.6722   59.0060 C.ar    1  ZINC000809503567   -0.0900
     18 C18       -15.8124   -0.1578   60.1664 C.ar    1  ZINC000809503567   -0.1000
     19 C19       -15.5666    1.1548   60.5238 C.ar    1  ZINC000809503567   -0.1300
     20 C20       -14.7731    1.9528   59.7210 C.ar    1  ZINC000809503567   -0.1100
     21 C21       -14.2251    1.4381   58.5610 C.ar    1  ZINC000809503567   -0.1300
     22 C22       -14.4674    0.1243   58.2058 C.ar    1  ZINC000809503567   -0.0800
     23 C23        -8.6377   -0.9345   62.7017 C.ar    1  ZINC000809503567   -0.0100
     24 C24        -8.8064   -0.2127   63.8856 C.ar    1  ZINC000809503567   -0.0600
     25 C25        -8.0076   -0.5168   65.0345 C.1     1  ZINC000809503567    0.2600
     26 N26        -7.3739   -0.7582   65.9460 N.1     1  ZINC000809503567   -0.4100
     27 H27       -11.2905    2.9319   64.4318 H       1  ZINC000809503567    0.0600
     28 H28       -10.4448    3.3213   65.9488 H       1  ZINC000809503567    0.1100
     29 H29        -9.5786    3.4185   64.3969 H       1  ZINC000809503567    0.0600
     30 H30       -11.2780    1.8751   62.8684 H       1  ZINC000809503567    0.1400
     31 H31       -10.9568    0.5993   60.7927 H       1  ZINC000809503567    0.1400
     32 H32        -8.4482   -0.9382   59.7182 H       1  ZINC000809503567    0.0900
     33 H33        -8.9262   -2.4343   60.5559 H       1  ZINC000809503567    0.0900
     34 H34       -11.1267   -0.7145   59.6900 H       1  ZINC000809503567    0.4100
     35 H35       -13.2843   -1.7505   60.5246 H       1  ZINC000809503567    0.0800
     36 H36       -14.0668   -3.3414   60.3676 H       1  ZINC000809503567    0.0800
     37 H37       -12.2911   -3.2217   60.3936 H       1  ZINC000809503567    0.0900
     38 H38       -16.4265   -2.1489   57.9937 H       1  ZINC000809503567    0.0700
     39 H39       -15.6848   -2.7018   59.5143 H       1  ZINC000809503567    0.0600
     40 H40       -16.4322   -0.7812   60.7936 H       1  ZINC000809503567    0.1200
     41 H41       -15.9948    1.5569   61.4301 H       1  ZINC000809503567    0.1200
     42 H42       -14.5818    2.9784   59.9998 H       1  ZINC000809503567    0.1200
     43 H43       -13.6055    2.0617   57.9335 H       1  ZINC000809503567    0.1200
     44 H44       -14.0391   -0.2778   57.2995 H       1  ZINC000809503567    0.1300
     45 H45        -7.9008   -1.7222   62.6490 H       1  ZINC000809503567    0.1400
@<TRIPOS>BOND
     1     1     2    1
     2     1    27    1
     3     1    28    1
     4     1    29    1
     5     2     3    1
     6     3    24   ar
     7     3     4   ar
     8     4     5   ar
     9     4    30    1
    10     5     6   ar
    11     5    31    1
    12     6     7    1
    13     6    23   ar
    14     7     8    1
    15     7    32    1
    16     7    33    1
    17     8     9   am
    18     8    34    1
    19     9    10    2
    20     9    11    1
    21    11    12    2
    22    11    13   am
    23    13    14    1
    24    13    15    1
    25    14    35    1
    26    14    36    1
    27    14    37    1
    28    15    16    1
    29    16    17    1
    30    16    38    1
    31    16    39    1
    32    17    22   ar
    33    17    18   ar
    34    18    19   ar
    35    18    40    1
    36    19    20   ar
    37    19    41    1
    38    20    21   ar
    39    20    42    1
    40    21    22   ar
    41    21    43    1
    42    22    44    1
    43    23    24   ar
    44    23    45    1
    45    24    25    1
    46    25    26    3
@<TRIPOS>SUBSTRUCTURE
     1 ZINC000809503567        1 TEMP              0 ****  ****    0 ROOT


##########                                Name:    ZINC000501032137
##########                DOCK_Rotatable_Bonds:                  10
##########                         Heavy_Atoms:                  25
##########                    Molecular_Weight:             407.307
##########                DOCK_Rotatable_Bonds:                  10
##########                       Formal_Charge:           0.0099998
##########                     HBond_Acceptors:                   5
##########                        HBond_Donors:                   1
##########                         Heavy_Atoms:                  25
##########                          Grid_Score:          -31.105110
##########                     Grid_vdw_energy:          -26.678211
##########                      Grid_es_energy:           -4.426898
##########           Internal_energy_repulsive:           12.921381

@<TRIPOS>MOLECULE
ZINC000501032137
 48 50 1 0 0
SMALL
USER_CHARGES


@<TRIPOS>ATOM
      1 C1         -6.0766    0.6162   66.2898 C.3     1  ZINC000501032137   -0.1500
      2 C2         -7.2972    0.0276   65.5795 C.3     1  ZINC000501032137   -0.1200
      3 C3         -8.3666    1.1103   65.4215 C.3     1  ZINC000501032137    0.0600
      4 O4         -9.5066    0.5605   64.7581 O.3     1  ZINC000501032137   -0.3800
      5 C5         -9.3087    0.3229   63.3629 C.3     1  ZINC000501032137    0.0500
      6 C6        -10.5393    0.7946   62.5856 C.3     1  ZINC000501032137    0.1600
      7 H7        -11.3319    0.0517   62.6746 H       1  ZINC000501032137    0.1000
      8 C8        -10.1728    0.9752   61.1112 C.3     1  ZINC000501032137   -0.0900
      9 C9        -10.4529   -0.3030   60.3637 C.ar    1  ZINC000501032137   -0.0600
     10 C10       -11.7542   -0.6516   60.0545 C.ar    1  ZINC000501032137   -0.0900
     11 C11       -12.0117   -1.8242   59.3686 C.ar    1  ZINC000501032137   -0.1100
     12 C12       -10.9682   -2.6482   58.9921 C.ar    1  ZINC000501032137   -0.0900
     13 C13        -9.6656   -2.2997   59.3015 C.ar    1  ZINC000501032137   -0.0800
     14 Br14       -8.2371   -3.4269   58.7866 Br      1  ZINC000501032137   -0.0600
     15 C15        -9.4080   -1.1238   59.9825 C.ar    1  ZINC000501032137   -0.0800
     16 N16       -11.0031    2.0716   63.1335 N.am    1  ZINC000501032137   -0.7100
     17 C17       -12.2690    2.1936   63.5795 C.2     1  ZINC000501032137    0.6100
     18 O18       -13.0259    1.2431   63.5285 O.2     1  ZINC000501032137   -0.5200
     19 C19       -12.7362    3.4791   64.1293 C.2     1  ZINC000501032137   -0.0800
     20 C20       -12.0076    4.6230   64.2418 C.2     1  ZINC000501032137    0.0800
     21 C21       -10.5711    4.8157   63.8289 C.3     1  ZINC000501032137   -0.0800
     22 C22        -9.7998    5.9697   64.4726 C.3     1  ZINC000501032137   -0.1700
     23 C23        -9.4909    4.5256   64.8729 C.3     1  ZINC000501032137   -0.1500
     24 O24       -12.8121    5.5472   64.7905 O.3     1  ZINC000501032137   -0.2000
     25 C25       -14.0087    4.9842   65.0103 C.2     1  ZINC000501032137    0.1800
     26 N26       -13.9790    3.7470   64.6143 N.2     1  ZINC000501032137   -0.4600
     27 H27        -5.6750    1.4401   65.6997 H       1  ZINC000501032137    0.0600
     28 H28        -6.3704    0.9831   67.2732 H       1  ZINC000501032137    0.0600
     29 H29        -5.3147   -0.1551   66.4024 H       1  ZINC000501032137    0.0600
     30 H30        -7.0034   -0.3393   64.5960 H       1  ZINC000501032137    0.0700
     31 H31        -7.6987   -0.7963   66.1696 H       1  ZINC000501032137    0.0700
     32 H32        -8.6603    1.4771   66.4049 H       1  ZINC000501032137    0.0500
     33 H33        -7.9651    1.9341   64.8313 H       1  ZINC000501032137    0.0500
     34 H34        -8.4311    0.8719   63.0217 H       1  ZINC000501032137    0.0700
     35 H35        -9.1587   -0.7434   63.1936 H       1  ZINC000501032137    0.0600
     36 H36       -10.7679    1.7830   60.6853 H       1  ZINC000501032137    0.0900
     37 H37        -9.1142    1.2207   61.0274 H       1  ZINC000501032137    0.0800
     38 H38       -12.5700   -0.0080   60.3488 H       1  ZINC000501032137    0.1200
     39 H39       -13.0287   -2.0964   59.1274 H       1  ZINC000501032137    0.1300
     40 H40       -11.1695   -3.5643   58.4567 H       1  ZINC000501032137    0.1300
     41 H41        -8.3912   -0.8511   60.2239 H       1  ZINC000501032137    0.1200
     42 H42       -10.3990    2.8294   63.1753 H       1  ZINC000501032137    0.4100
     43 H43       -10.3444    4.5758   62.7900 H       1  ZINC000501032137    0.1500
     44 H44        -9.0654    6.4893   63.8571 H       1  ZINC000501032137    0.1100
     45 H45       -10.3311    6.5894   65.1947 H       1  ZINC000501032137    0.1000
     46 H46        -9.8192    4.1953   65.8584 H       1  ZINC000501032137    0.1000
     47 H47        -8.5534    4.0953   64.5208 H       1  ZINC000501032137    0.1100
     48 H48       -14.8634    5.4814   65.4447 H       1  ZINC000501032137    0.2500
@<TRIPOS>BOND
     1     1     2    1
     2     1    27    1
     3     1    28    1
     4     1    29    1
     5     2     3    1
     6     2    30    1
     7     2    31    1
     8     3     4    1
     9     3    32    1
    10     3    33    1
    11     4     5    1
    12     5     6    1
    13     5    34    1
    14     5    35    1
    15     6     7    1
    16     6     8    1
    17     6    16    1
    18     8     9    1
    19     8    36    1
    20     8    37    1
    21     9    15   ar
    22     9    10   ar
    23    10    11   ar
    24    10    38    1
    25    11    12   ar
    26    11    39    1
    27    12    13   ar
    28    12    40    1
    29    13    14    1
    30    13    15   ar
    31    15    41    1
    32    16    17   am
    33    16    42    1
    34    17    18    2
    35    17    19    1
    36    19    26    1
    37    19    20    2
    38    20    21    1
    39    20    24    1
    40    21    23    1
    41    21    22    1
    42    21    43    1
    43    22    23    1
    44    22    44    1
    45    22    45    1
    46    23    46    1
    47    23    47    1
    48    24    25    1
    49    25    26    2
    50    25    48    1
@<TRIPOS>SUBSTRUCTURE
     1 ZINC000501032137        1 TEMP              0 ****  ****    0 ROOT


##########                                Name:    ZINC000740930783
##########                DOCK_Rotatable_Bonds:                  11
##########                         Heavy_Atoms:                  27
##########                    Molecular_Weight:             413.257
##########                DOCK_Rotatable_Bonds:                  11
##########                       Formal_Charge:          -0.0100004
##########                     HBond_Acceptors:                   9
##########                        HBond_Donors:                   4
##########                         Heavy_Atoms:                  27
##########                          Grid_Score:          -31.083427
##########                     Grid_vdw_energy:          -28.294109
##########                      Grid_es_energy:           -2.789318
##########           Internal_energy_repulsive:          194.488297

@<TRIPOS>MOLECULE
ZINC000740930783
 45 46 1 0 0
SMALL
USER_CHARGES


@<TRIPOS>ATOM
      1 C1        -10.4812    3.5845   62.9937 C.3     1  ZINC000740930783    0.0200
      2 O2        -11.0345    2.2987   62.7056 O.3     1  ZINC000740930783   -0.3000
      3 C3        -10.1913    1.2340   62.7751 C.ar    1  ZINC000740930783    0.1200
      4 C4         -9.4463    1.0165   63.9178 C.ar    1  ZINC000740930783   -0.1400
      5 C5         -8.5809   -0.0787   63.9865 C.ar    1  ZINC000740930783   -0.0800
      6 C6         -7.7831   -0.3155   65.2057 C.2     1  ZINC000740930783    0.5600
      7 O7         -7.8640   -1.3797   65.7880 O.2     1  ZINC000740930783   -0.5300
      8 N8         -6.9649    0.6481   65.6733 N.am    1  ZINC000740930783   -0.7200
      9 C9         -6.1744    0.4137   66.8842 C.3     1  ZINC000740930783    0.0900
     10 C10        -4.8744    1.2169   66.8079 C.3     1  ZINC000740930783    0.1400
     11 H11        -4.3040    0.9028   65.9338 H       1  ZINC000740930783    0.1200
     12 O12        -4.1024    0.9868   67.9883 O.3     1  ZINC000740930783   -0.5500
     13 C13        -5.1966    2.6848   66.6966 C.ar    1  ZINC000740930783   -0.1100
     14 C14        -6.3655    3.0911   66.0817 C.ar    1  ZINC000740930783   -0.1000
     15 C15        -6.6613    4.4379   65.9796 C.ar    1  ZINC000740930783   -0.1100
     16 C16        -5.7877    5.3786   66.4917 C.ar    1  ZINC000740930783   -0.1000
     17 C17        -4.6179    4.9734   67.1070 C.ar    1  ZINC000740930783   -0.1100
     18 C18        -4.3246    3.6259   67.2150 C.ar    1  ZINC000740930783   -0.0300
     19 Cl19       -2.8559    3.1162   67.9876 Cl      1  ZINC000740930783   -0.0600
     20 C20        -8.4728   -0.9492   62.8995 C.ar    1  ZINC000740930783   -0.1000
     21 C21        -9.2195   -0.7266   61.7613 C.ar    1  ZINC000740930783   -0.0200
     22 Cl22       -9.0845   -1.8095   60.4113 Cl      1  ZINC000740930783   -0.0300
     23 C23       -10.0832    0.3590   61.6954 C.ar    1  ZINC000740930783    0.0900
     24 O24       -10.8166    0.5743   60.5726 O.3     1  ZINC000740930783   -0.2900
     25 C25       -12.1366    0.0277   60.5451 C.3     1  ZINC000740930783    0.0400
     26 C26       -12.7862    0.3495   59.2239 C.2     1  ZINC000740930783    0.5200
     27 N27       -12.4504    1.4760   58.5645 N.am    1  ZINC000740930783   -0.8500
     28 O28       -13.6111   -0.4052   58.7540 O.2     1  ZINC000740930783   -0.5100
     29 H29       -10.0850    3.5903   64.0092 H       1  ZINC000740930783    0.0600
     30 H30        -9.6780    3.8005   62.2892 H       1  ZINC000740930783    0.0600
     31 H31       -11.2584    4.3432   62.9025 H       1  ZINC000740930783    0.1100
     32 H32        -9.5320    1.6918   64.7562 H       1  ZINC000740930783    0.1600
     33 H33        -6.8995    1.4967   65.2080 H       1  ZINC000740930783    0.4100
     34 H34        -6.7454    0.7289   67.7576 H       1  ZINC000740930783    0.0900
     35 H35        -5.9414   -0.6479   66.9662 H       1  ZINC000740930783    0.0800
     36 H36        -3.2624    1.4656   68.0085 H       1  ZINC000740930783    0.3800
     37 H37        -7.0481    2.3566   65.6807 H       1  ZINC000740930783    0.1300
     38 H38        -7.5750    4.7550   65.4989 H       1  ZINC000740930783    0.1300
     39 H39        -6.0188    6.4306   66.4109 H       1  ZINC000740930783    0.1400
     40 H40        -3.9355    5.7086   67.5072 H       1  ZINC000740930783    0.1400
     41 H41        -7.8046   -1.7961   62.9500 H       1  ZINC000740930783    0.1500
     42 H42       -12.0847   -1.0538   60.6706 H       1  ZINC000740930783    0.0900
     43 H43       -12.7256    0.4595   61.3543 H       1  ZINC000740930783    0.0900
     44 H44       -12.8677    1.6826   57.7136 H       1  ZINC000740930783    0.4000
     45 H45       -11.7916    2.0803   58.9410 H       1  ZINC000740930783    0.4100
@<TRIPOS>BOND
     1     1     2    1
     2     1    29    1
     3     1    30    1
     4     1    31    1
     5     2     3    1
     6     3    23   ar
     7     3     4   ar
     8     4     5   ar
     9     4    32    1
    10     5     6    1
    11     5    20   ar
    12     6     7    2
    13     6     8   am
    14     8     9    1
    15     8    33    1
    16     9    10    1
    17     9    34    1
    18     9    35    1
    19    10    11    1
    20    10    12    1
    21    10    13    1
    22    12    36    1
    23    13    18   ar
    24    13    14   ar
    25    14    15   ar
    26    14    37    1
    27    15    16   ar
    28    15    38    1
    29    16    17   ar
    30    16    39    1
    31    17    18   ar
    32    17    40    1
    33    18    19    1
    34    20    21   ar
    35    20    41    1
    36    21    22    1
    37    21    23   ar
    38    23    24    1
    39    24    25    1
    40    25    26    1
    41    25    42    1
    42    25    43    1
    43    26    27   am
    44    26    28    2
    45    27    44    1
    46    27    45    1
@<TRIPOS>SUBSTRUCTURE
     1 ZINC000740930783        1 TEMP              0 ****  ****    0 ROOT


##########                                Name:    ZINC000464139057
##########                DOCK_Rotatable_Bonds:                   9
##########                         Heavy_Atoms:                  30
##########                    Molecular_Weight:              413.56
##########                DOCK_Rotatable_Bonds:                   9
##########                       Formal_Charge:         2.38419e-07
##########                     HBond_Acceptors:                   6
##########                        HBond_Donors:                   2
##########                         Heavy_Atoms:                  30
##########                          Grid_Score:          -31.069269
##########                     Grid_vdw_energy:          -30.336582
##########                      Grid_es_energy:           -0.732687
##########           Internal_energy_repulsive:           11.923491

@<TRIPOS>MOLECULE
ZINC000464139057
 65 67 1 0 0
SMALL
USER_CHARGES


@<TRIPOS>ATOM
      1 C1        -11.2265    1.3520   62.9029 C.3     1  ZINC000464139057   -0.1800
      2 C2        -12.0651    0.7162   61.7924 C.3     1  ZINC000464139057    0.0700
      3 H3        -13.0219    0.3900   62.2002 H       1  ZINC000464139057    0.1200
      4 C4        -12.3060    1.7437   60.6805 C.3     1  ZINC000464139057    0.0800
      5 N5        -11.0199    2.0271   60.0240 N.am    1  ZINC000464139057   -0.6100
      6 C6        -10.5985    3.2942   59.8415 C.2     1  ZINC000464139057    0.5600
      7 O7        -11.2838    4.2233   60.2213 O.2     1  ZINC000464139057   -0.5300
      8 C8         -9.3024    3.5540   59.1791 C.ar    1  ZINC000464139057   -0.1200
      9 C9         -9.1689    3.3670   57.8024 C.ar    1  ZINC000464139057   -0.0900
     10 C10        -7.9570    3.6117   57.1904 C.ar    1  ZINC000464139057   -0.1000
     11 C11        -6.8751    4.0410   57.9385 C.ar    1  ZINC000464139057   -0.0900
     12 C12        -5.5541    4.3058   57.2633 C.3     1  ZINC000464139057    0.1800
     13 N13        -4.4687    3.7631   58.0840 N.am    1  ZINC000464139057   -0.7400
     14 C14        -3.2023    3.7798   57.6232 C.2     1  ZINC000464139057    0.7000
     15 O15        -2.9604    4.2467   56.5269 O.2     1  ZINC000464139057   -0.5900
     16 N16        -2.2040    3.2791   58.3776 N.am    1  ZINC000464139057   -0.7500
     17 C17        -0.8277    3.2957   57.8759 C.3     1  ZINC000464139057    0.1400
     18 C18         0.1412    3.4500   59.0499 C.3     1  ZINC000464139057   -0.0900
     19 C19        -0.0125    2.2786   59.9855 C.2     1  ZINC000464139057   -0.1200
     20 C20         0.6811    1.2024   59.7897 C.2     1  ZINC000464139057   -0.1500
     21 C21         0.5363    0.0186   60.7219 C.3     1  ZINC000464139057   -0.0900
     22 C22         1.1913    0.3675   62.0601 C.3     1  ZINC000464139057   -0.1100
     23 C23         0.2158    1.1044   62.9607 C.3     1  ZINC000464139057   -0.1200
     24 C24        -0.1692    2.4796   62.4448 C.3     1  ZINC000464139057   -0.1100
     25 C25        -0.9722    2.3685   61.1527 C.3     1  ZINC000464139057   -0.0800
     26 C26        -7.0008    4.2287   59.3035 C.ar    1  ZINC000464139057   -0.1000
     27 C27        -8.2086    3.9928   59.9269 C.ar    1  ZINC000464139057   -0.0700
     28 C28       -10.2074    0.8861   59.5729 C.3     1  ZINC000464139057    0.0700
     29 C29       -10.0688   -0.0996   60.7388 C.3     1  ZINC000464139057    0.0700
     30 H30        -9.4641    0.3504   61.5260 H       1  ZINC000464139057    0.0700
     31 C31        -9.3947   -1.3819   60.2464 C.3     1  ZINC000464139057   -0.1500
     32 O32       -11.3678   -0.4088   61.2521 O.3     1  ZINC000464139057   -0.3700
     33 H33       -10.2699    1.6780   62.4945 H       1  ZINC000464139057    0.0600
     34 H34       -11.7579    2.2107   63.3133 H       1  ZINC000464139057    0.0700
     35 H35       -11.0541    0.6204   63.6923 H       1  ZINC000464139057    0.0700
     36 H36       -13.0087    1.3386   59.9523 H       1  ZINC000464139057    0.0800
     37 H37       -12.7091    2.6611   61.1095 H       1  ZINC000464139057    0.1000
     38 H38       -10.0125    3.0312   57.2175 H       1  ZINC000464139057    0.1300
     39 H39        -7.8523    3.4674   56.1252 H       1  ZINC000464139057    0.1300
     40 H40        -5.5438    3.8265   56.2844 H       1  ZINC000464139057    0.0800
     41 H41        -5.4163    5.3803   57.1432 H       1  ZINC000464139057    0.0800
     42 H42        -4.6615    3.3917   58.9592 H       1  ZINC000464139057    0.4000
     43 H43        -2.3968    2.9077   59.2527 H       1  ZINC000464139057    0.4000
     44 H44        -0.6199    2.3617   57.3539 H       1  ZINC000464139057    0.0700
     45 H45        -0.7015    4.1321   57.1884 H       1  ZINC000464139057    0.0700
     46 H46         1.1641    3.4834   58.6748 H       1  ZINC000464139057    0.0700
     47 H47        -0.0800    4.3736   59.5847 H       1  ZINC000464139057    0.0800
     48 H48         1.3664    1.1493   58.9566 H       1  ZINC000464139057    0.1100
     49 H49        -0.5207   -0.1976   60.8772 H       1  ZINC000464139057    0.0700
     50 H50         1.0302   -0.8510   60.2884 H       1  ZINC000464139057    0.0700
     51 H51         1.5116   -0.5504   62.5530 H       1  ZINC000464139057    0.0600
     52 H52         2.0610    0.9994   61.8800 H       1  ZINC000464139057    0.0600
     53 H53        -0.6883    0.5038   63.0605 H       1  ZINC000464139057    0.0600
     54 H54         0.6674    1.2157   63.9465 H       1  ZINC000464139057    0.0600
     55 H55        -0.7693    2.9904   63.1980 H       1  ZINC000464139057    0.0600
     56 H56         0.7351    3.0579   62.2550 H       1  ZINC000464139057    0.0600
     57 H57        -1.6051    3.2486   61.0383 H       1  ZINC000464139057    0.0700
     58 H58        -1.5907    1.4714   61.1823 H       1  ZINC000464139057    0.0700
     59 H59        -6.1525    4.5643   59.8816 H       1  ZINC000464139057    0.1300
     60 H60        -8.3056    4.1399   60.9925 H       1  ZINC000464139057    0.1300
     61 H61       -10.6988    0.3947   58.7332 H       1  ZINC000464139057    0.0800
     62 H62        -9.2209    1.2356   59.2684 H       1  ZINC000464139057    0.1000
     63 H63        -8.4066   -1.1446   59.8523 H       1  ZINC000464139057    0.0800
     64 H64        -9.2965   -2.0822   61.0758 H       1  ZINC000464139057    0.0700
     65 H65       -10.0008   -1.8323   59.4604 H       1  ZINC000464139057    0.0700
@<TRIPOS>BOND
     1     1     2    1
     2     1    33    1
     3     1    34    1
     4     1    35    1
     5     2     3    1
     6     2    32    1
     7     2     4    1
     8     4     5    1
     9     4    36    1
    10     4    37    1
    11     5     6   am
    12     5    28    1
    13     6     7    2
    14     6     8    1
    15     8    27   ar
    16     8     9   ar
    17     9    10   ar
    18     9    38    1
    19    10    11   ar
    20    10    39    1
    21    11    12    1
    22    11    26   ar
    23    12    13    1
    24    12    40    1
    25    12    41    1
    26    13    14   am
    27    13    42    1
    28    14    15    2
    29    14    16   am
    30    16    17    1
    31    16    43    1
    32    17    18    1
    33    17    44    1
    34    17    45    1
    35    18    19    1
    36    18    46    1
    37    18    47    1
    38    19    25    1
    39    19    20    2
    40    20    21    1
    41    20    48    1
    42    21    22    1
    43    21    49    1
    44    21    50    1
    45    22    23    1
    46    22    51    1
    47    22    52    1
    48    23    24    1
    49    23    53    1
    50    23    54    1
    51    24    25    1
    52    24    55    1
    53    24    56    1
    54    25    57    1
    55    25    58    1
    56    26    27   ar
    57    26    59    1
    58    27    60    1
    59    28    29    1
    60    28    61    1
    61    28    62    1
    62    29    30    1
    63    29    31    1
    64    29    32    1
    65    31    63    1
    66    31    64    1
    67    31    65    1
@<TRIPOS>SUBSTRUCTURE
     1 ZINC000464139057        1 TEMP              0 ****  ****    0 ROOT


##########                                Name:    ZINC000533131987
##########                DOCK_Rotatable_Bonds:                  11
##########                         Heavy_Atoms:                  30
##########                    Molecular_Weight:             419.403
##########                DOCK_Rotatable_Bonds:                  11
##########                       Formal_Charge:                0.01
##########                     HBond_Acceptors:                   9
##########                        HBond_Donors:                   3
##########                         Heavy_Atoms:                  30
##########                          Grid_Score:          -31.066372
##########                     Grid_vdw_energy:          -29.445175
##########                      Grid_es_energy:           -1.621196
##########           Internal_energy_repulsive:           27.320303

@<TRIPOS>MOLECULE
ZINC000533131987
 50 52 1 0 0
SMALL
USER_CHARGES


@<TRIPOS>ATOM
      1 O1         -9.1188    2.0601   58.4525 O.2     1  ZINC000533131987   -0.5700
      2 C2         -9.5846    3.1186   58.8280 C.2     1  ZINC000533131987    0.7100
      3 N3        -10.7217    3.1357   59.5514 N.am    1  ZINC000533131987   -0.7400
      4 C4        -11.3995    1.8794   59.8803 C.3     1  ZINC000533131987    0.1400
      5 C5        -10.6925    1.2126   61.0620 C.3     1  ZINC000533131987   -0.0900
      6 H6         -9.6472    1.0367   60.8078 H       1  ZINC000533131987    0.0900
      7 C7        -10.7728    2.1267   62.2862 C.3     1  ZINC000533131987    0.0800
      8 O8         -9.9795    1.5802   63.3417 O.3     1  ZINC000533131987   -0.5600
      9 C9        -11.3724   -0.1216   61.3763 C.3     1  ZINC000533131987   -0.0900
     10 C10       -10.7973   -1.1987   60.4930 C.ar    1  ZINC000533131987    0.0000
     11 C11        -9.4410   -1.4635   60.5199 C.ar    1  ZINC000533131987   -0.1100
     12 C12        -8.9135   -2.4516   59.7094 C.ar    1  ZINC000533131987   -0.0800
     13 C13        -9.7424   -3.1751   58.8729 C.ar    1  ZINC000533131987   -0.1300
     14 C14       -11.0992   -2.9108   58.8467 C.ar    1  ZINC000533131987   -0.0700
     15 C15       -11.6272   -1.9259   59.6599 C.ar    1  ZINC000533131987   -0.1700
     16 C16       -13.1062   -1.6379   59.6314 C.3     1  ZINC000533131987    0.5100
     17 F17       -13.7405   -2.5401   58.7708 F       1  ZINC000533131987   -0.1800
     18 F18       -13.6328   -1.7742   60.9204 F       1  ZINC000533131987   -0.1700
     19 F19       -13.3183   -0.3319   59.1767 F       1  ZINC000533131987   -0.1800
     20 N20        -8.9609    4.2744   58.5254 N.am    1  ZINC000533131987   -0.6900
     21 C21        -7.7801    4.2566   57.7741 C.ar    1  ZINC000533131987    0.1600
     22 C22        -6.5558    4.4583   58.3995 C.ar    1  ZINC000533131987   -0.1000
     23 C23        -5.3865    4.4418   57.6619 C.ar    1  ZINC000533131987   -0.1000
     24 C24        -5.4276    4.2248   56.2999 C.ar    1  ZINC000533131987   -0.1000
     25 C25        -6.6528    4.0211   55.6622 C.ar    1  ZINC000533131987    0.0000
     26 C26        -6.6997    3.7880   54.2031 C.2     1  ZINC000533131987    0.2300
     27 N27        -7.7848    3.7619   53.4658 N.2     1  ZINC000533131987   -0.4700
     28 C28        -7.4331    3.5255   52.1930 C.2     1  ZINC000533131987   -0.0400
     29 C29        -6.0938    3.4034   52.1513 C.2     1  ZINC000533131987   -0.0700
     30 O30        -5.6373    3.5728   53.4080 O.3     1  ZINC000533131987   -0.2000
     31 C31        -7.8316    4.0321   56.4071 C.ar    1  ZINC000533131987   -0.1000
     32 H32       -11.0911    3.9799   59.8542 H       1  ZINC000533131987    0.4000
     33 H33       -12.4364    2.0848   60.1462 H       1  ZINC000533131987    0.0700
     34 H34       -11.3707    1.2141   59.0173 H       1  ZINC000533131987    0.0800
     35 H35       -10.3985    3.1167   62.0256 H       1  ZINC000533131987    0.0400
     36 H36       -11.8094    2.2049   62.6140 H       1  ZINC000533131987    0.0600
     37 H37        -9.0342    1.7678   63.2609 H       1  ZINC000533131987    0.3800
     38 H38       -11.2013   -0.3792   62.4216 H       1  ZINC000533131987    0.0800
     39 H39       -12.4435   -0.0355   61.1938 H       1  ZINC000533131987    0.0900
     40 H40        -8.7933   -0.8982   61.1736 H       1  ZINC000533131987    0.1300
     41 H41        -7.8535   -2.6580   59.7299 H       1  ZINC000533131987    0.1300
     42 H42        -9.3301   -3.9465   58.2393 H       1  ZINC000533131987    0.1300
     43 H43       -11.7468   -3.4758   58.1927 H       1  ZINC000533131987    0.1300
     44 H44        -9.3304    5.1186   58.8283 H       1  ZINC000533131987    0.4100
     45 H45        -6.5175    4.6289   59.4653 H       1  ZINC000533131987    0.1500
     46 H46        -4.4379    4.5995   58.1535 H       1  ZINC000533131987    0.1400
     47 H47        -4.5121    4.2130   55.7272 H       1  ZINC000533131987    0.1300
     48 H48        -8.1054    3.4470   51.3514 H       1  ZINC000533131987    0.1900
     49 H49        -5.4955    3.2096   51.2734 H       1  ZINC000533131987    0.2200
     50 H50        -8.7822    3.8752   55.9193 H       1  ZINC000533131987    0.1400
@<TRIPOS>BOND
     1     1     2    2
     2     2     3   am
     3     2    20   am
     4     3     4    1
     5     3    32    1
     6     4     5    1
     7     4    33    1
     8     4    34    1
     9     5     6    1
    10     5     7    1
    11     5     9    1
    12     7     8    1
    13     7    35    1
    14     7    36    1
    15     8    37    1
    16     9    10    1
    17     9    38    1
    18     9    39    1
    19    10    15   ar
    20    10    11   ar
    21    11    12   ar
    22    11    40    1
    23    12    13   ar
    24    12    41    1
    25    13    14   ar
    26    13    42    1
    27    14    15   ar
    28    14    43    1
    29    15    16    1
    30    16    17    1
    31    16    18    1
    32    16    19    1
    33    20    21    1
    34    20    44    1
    35    21    31   ar
    36    21    22   ar
    37    22    23   ar
    38    22    45    1
    39    23    24   ar
    40    23    46    1
    41    24    25   ar
    42    24    47    1
    43    25    26    1
    44    25    31   ar
    45    26    30    1
    46    26    27    2
    47    27    28    1
    48    28    29    2
    49    28    48    1
    50    29    30    1
    51    29    49    1
    52    31    50    1
@<TRIPOS>SUBSTRUCTURE
     1 ZINC000533131987        1 TEMP              0 ****  ****    0 ROOT


##########                                Name:    ZINC000572148596
##########                DOCK_Rotatable_Bonds:                   4
##########                         Heavy_Atoms:                  26
##########                    Molecular_Weight:             371.463
##########                DOCK_Rotatable_Bonds:                   4
##########                       Formal_Charge:          -0.0199999
##########                     HBond_Acceptors:                   8
##########                        HBond_Donors:                   0
##########                         Heavy_Atoms:                  26
##########                          Grid_Score:          -31.064743
##########                     Grid_vdw_energy:          -30.180948
##########                      Grid_es_energy:           -0.883794
##########           Internal_energy_repulsive:           14.482826

@<TRIPOS>MOLECULE
ZINC000572148596
 47 50 1 0 0
SMALL
USER_CHARGES


@<TRIPOS>ATOM
      1 C1         -9.4594    2.4857   65.7898 C.3     1  ZINC000572148596   -0.1400
      2 C2         -8.6464    1.1951   65.9101 C.3     1  ZINC000572148596    0.0800
      3 H3         -9.0655    0.5742   66.7019 H       1  ZINC000572148596    0.1200
      4 C4         -8.6976    0.4456   64.6037 C.2     1  ZINC000572148596    0.1800
      5 N5         -7.7715   -0.3348   64.1297 N.2     1  ZINC000572148596   -0.3500
      6 O6         -8.1085   -0.7915   63.0578 O.3     1  ZINC000572148596    0.0900
      7 C7         -9.3263   -0.3302   62.7323 C.2     1  ZINC000572148596    0.2300
      8 C8        -10.0917   -0.6468   61.5104 C.ar    1  ZINC000572148596   -0.1200
      9 C9         -9.5621   -1.5145   60.5442 C.ar    1  ZINC000572148596   -0.0100
     10 C10       -10.3070   -1.7801   59.4260 C.ar    1  ZINC000572148596   -0.1900
     11 C11       -11.5586   -1.1859   59.2815 C.ar    1  ZINC000572148596    0.3400
     12 N12       -12.3155   -1.4528   58.1511 N.3     1  ZINC000572148596   -0.4700
     13 C13       -13.3753   -0.4489   57.9775 C.3     1  ZINC000572148596    0.0300
     14 C14       -14.1468   -0.7467   56.6891 C.3     1  ZINC000572148596    0.0900
     15 H15       -14.9695   -0.0390   56.5856 H       1  ZINC000572148596    0.1100
     16 C16       -13.2068   -0.6162   55.4889 C.3     1  ZINC000572148596   -0.1800
     17 O17       -14.6663   -2.0778   56.7472 O.3     1  ZINC000572148596   -0.3700
     18 C18       -13.6612   -3.0813   56.9153 C.3     1  ZINC000572148596    0.0800
     19 H19       -12.9772   -3.0569   56.0670 H       1  ZINC000572148596    0.0700
     20 C20       -14.3230   -4.4582   56.9987 C.3     1  ZINC000572148596   -0.1400
     21 C21       -12.8848   -2.8071   58.2061 C.3     1  ZINC000572148596    0.0300
     22 N22       -12.0361   -0.3691   60.2102 N.ar    1  ZINC000572148596   -0.5200
     23 C23       -11.3550   -0.0917   61.3028 C.ar    1  ZINC000572148596    0.1900
     24 N24        -9.7092    0.4581   63.7222 N.2     1  ZINC000572148596   -0.4700
     25 C25        -7.2152    1.5319   66.2404 C.2     1  ZINC000572148596    0.0400
     26 N26        -6.1911    0.8311   65.8869 N.2     1  ZINC000572148596   -0.4500
     27 C27        -5.0055    1.2693   66.2594 C.2     1  ZINC000572148596    0.0400
     28 C28        -5.0308    2.4031   66.9666 C.2     1  ZINC000572148596   -0.2500
     29 S29        -6.7127    2.9018   67.1316 S.3     1  ZINC000572148596    0.1400
     30 H30        -9.0402    3.1067   64.9981 H       1  ZINC000572148596    0.0800
     31 H31       -10.4945    2.2421   65.5510 H       1  ZINC000572148596    0.0700
     32 H32        -9.4224    3.0278   66.7347 H       1  ZINC000572148596    0.0800
     33 H33        -8.5888   -1.9629   60.6787 H       1  ZINC000572148596    0.1500
     34 H34        -9.9274   -2.4437   58.6632 H       1  ZINC000572148596    0.1500
     35 H35       -14.0569   -0.4884   58.8272 H       1  ZINC000572148596    0.0600
     36 H36       -12.9294    0.5437   57.9135 H       1  ZINC000572148596    0.1000
     37 H37       -12.3852   -1.3251   55.5922 H       1  ZINC000572148596    0.0700
     38 H38       -13.7566   -0.8283   54.5720 H       1  ZINC000572148596    0.0600
     39 H39       -12.8087    0.3978   55.4477 H       1  ZINC000572148596    0.0700
     40 H40       -14.8781   -4.6507   56.0807 H       1  ZINC000572148596    0.0700
     41 H41       -13.5564   -5.2225   57.1268 H       1  ZINC000572148596    0.0700
     42 H42       -15.0057   -4.4824   57.8481 H       1  ZINC000572148596    0.0600
     43 H43       -12.0810   -3.5359   58.3090 H       1  ZINC000572148596    0.1000
     44 H44       -13.5586   -2.8844   59.0594 H       1  ZINC000572148596    0.0600
     45 H45       -11.7735    0.5781   62.0395 H       1  ZINC000572148596    0.1700
     46 H46        -4.0885    0.7545   66.0137 H       1  ZINC000572148596    0.1800
     47 H47        -4.1719    2.9237   67.3636 H       1  ZINC000572148596    0.1800
@<TRIPOS>BOND
     1     1     2    1
     2     1    30    1
     3     1    31    1
     4     1    32    1
     5     2     3    1
     6     2     4    1
     7     2    25    1
     8     4    24    1
     9     4     5    2
    10     5     6    1
    11     6     7    1
    12     7     8    1
    13     7    24    2
    14     8    23   ar
    15     8     9   ar
    16     9    10   ar
    17     9    33    1
    18    10    11   ar
    19    10    34    1
    20    11    12    1
    21    11    22   ar
    22    12    21    1
    23    12    13    1
    24    13    14    1
    25    13    35    1
    26    13    36    1
    27    14    15    1
    28    14    16    1
    29    14    17    1
    30    16    37    1
    31    16    38    1
    32    16    39    1
    33    17    18    1
    34    18    19    1
    35    18    20    1
    36    18    21    1
    37    20    40    1
    38    20    41    1
    39    20    42    1
    40    21    43    1
    41    21    44    1
    42    22    23   ar
    43    23    45    1
    44    25    29    1
    45    25    26    2
    46    26    27    1
    47    27    28    2
    48    27    46    1
    49    28    29    1
    50    28    47    1
@<TRIPOS>SUBSTRUCTURE
     1 ZINC000572148596        1 TEMP              0 ****  ****    0 ROOT


##########                                Name:    ZINC000263872566
##########                DOCK_Rotatable_Bonds:                   9
##########                         Heavy_Atoms:                  26
##########                    Molecular_Weight:             362.469
##########                DOCK_Rotatable_Bonds:                   9
##########                       Formal_Charge:           0.0300001
##########                     HBond_Acceptors:                   6
##########                        HBond_Donors:                   2
##########                         Heavy_Atoms:                  26
##########                          Grid_Score:          -31.046867
##########                     Grid_vdw_energy:          -29.568012
##########                      Grid_es_energy:           -1.478855
##########           Internal_energy_repulsive:           27.005079

@<TRIPOS>MOLECULE
ZINC000263872566
 56 57 1 0 0
SMALL
USER_CHARGES


@<TRIPOS>ATOM
      1 C1         -6.5146   -3.7577   55.3593 C.3     1  ZINC000263872566   -0.1800
      2 C2         -6.5294   -4.2111   56.8205 C.3     1  ZINC000263872566    0.1400
      3 H3         -6.4557   -5.2978   56.8646 H       1  ZINC000263872566    0.0700
      4 O4         -5.4212   -3.6302   57.5107 O.3     1  ZINC000263872566   -0.5600
      5 C5         -7.8145   -3.7681   57.4710 C.ar    1  ZINC000263872566   -0.0800
      6 C6         -7.8189   -3.3765   58.7968 C.ar    1  ZINC000263872566   -0.0900
      7 C7         -8.9977   -2.9702   59.3936 C.ar    1  ZINC000263872566   -0.1000
      8 C8        -10.1720   -2.9548   58.6645 C.ar    1  ZINC000263872566   -0.1100
      9 C9        -11.4572   -2.5121   59.3152 C.3     1  ZINC000263872566    0.1800
     10 N10       -11.1587   -1.5611   60.3888 N.am    1  ZINC000263872566   -0.7400
     11 C11       -12.0775   -0.6442   60.7516 C.2     1  ZINC000263872566    0.7100
     12 O12       -13.1541   -0.6063   60.1878 O.2     1  ZINC000263872566   -0.5900
     13 N13       -11.8029    0.2308   61.7394 N.am    1  ZINC000263872566   -0.6300
     14 C14       -10.5042    0.2013   62.4258 C.3     1  ZINC000263872566    0.1100
     15 C15        -9.8836    1.6006   62.3671 C.3     1  ZINC000263872566   -0.1200
     16 C16       -10.8738    2.6179   62.9386 C.3     1  ZINC000263872566   -0.0800
     17 C17       -10.2534    3.9910   62.9137 C.2     1  ZINC000263872566    0.4700
     18 O18       -10.8325    4.9061   62.3776 O.2     1  ZINC000263872566   -0.5000
     19 O19        -9.0575    4.1977   63.4872 O.3     1  ZINC000263872566   -0.3500
     20 C20        -9.0577    4.6831   64.8557 C.3     1  ZINC000263872566    0.1200
     21 C21       -10.4903    5.0128   65.2797 C.3     1  ZINC000263872566   -0.1800
     22 C22        -8.4878    3.6047   65.7794 C.3     1  ZINC000263872566   -0.1400
     23 C23        -8.1951    5.9432   64.9500 C.3     1  ZINC000263872566   -0.1800
     24 C24       -12.1503    2.6198   62.0944 C.3     1  ZINC000263872566   -0.1300
     25 C25       -12.7943    1.2360   62.1460 C.3     1  ZINC000263872566    0.1300
     26 C26       -10.1674   -3.3449   57.3383 C.ar    1  ZINC000263872566   -0.1000
     27 C27        -8.9879   -3.7477   56.7405 C.ar    1  ZINC000263872566   -0.1100
     28 H28        -6.5884   -2.6712   55.3153 H       1  ZINC000263872566    0.0700
     29 H29        -5.5851   -4.0783   54.8888 H       1  ZINC000263872566    0.0600
     30 H30        -7.3600   -4.2008   54.8329 H       1  ZINC000263872566    0.0700
     31 H31        -5.4217   -2.6632   57.5120 H       1  ZINC000263872566    0.3800
     32 H32        -6.9015   -3.3886   59.3664 H       1  ZINC000263872566    0.1300
     33 H33        -9.0013   -2.6650   60.4296 H       1  ZINC000263872566    0.1300
     34 H34       -12.0945   -2.0328   58.5720 H       1  ZINC000263872566    0.0800
     35 H35       -11.9716   -3.3788   59.7302 H       1  ZINC000263872566    0.0800
     36 H36       -10.2998   -1.5912   60.8386 H       1  ZINC000263872566    0.4000
     37 H37       -10.6474   -0.0916   63.4660 H       1  ZINC000263872566    0.0800
     38 H38        -9.8452   -0.5119   61.9306 H       1  ZINC000263872566    0.0800
     39 H39        -8.9657    1.6165   62.9547 H       1  ZINC000263872566    0.0900
     40 H40        -9.6576    1.8551   61.3315 H       1  ZINC000263872566    0.0800
     41 H41       -11.1186    2.3486   63.9661 H       1  ZINC000263872566    0.1100
     42 H42       -11.1048    4.1150   65.2125 H       1  ZINC000263872566    0.0600
     43 H43       -10.4904    5.3772   66.3070 H       1  ZINC000263872566    0.0700
     44 H44       -10.8962    5.7811   64.6216 H       1  ZINC000263872566    0.0800
     45 H45        -7.4672    3.3698   65.4773 H       1  ZINC000263872566    0.0700
     46 H46        -8.4880    3.9691   66.8067 H       1  ZINC000263872566    0.0800
     47 H47        -9.1024    2.7069   65.7122 H       1  ZINC000263872566    0.0700
     48 H48        -8.6011    6.7115   64.2920 H       1  ZINC000263872566    0.0800
     49 H49        -8.1952    6.3076   65.9772 H       1  ZINC000263872566    0.0700
     50 H50        -7.1745    5.7083   64.6480 H       1  ZINC000263872566    0.0600
     51 H51       -12.8457    3.3611   62.4881 H       1  ZINC000263872566    0.0900
     52 H52       -11.9029    2.8647   61.0615 H       1  ZINC000263872566    0.0700
     53 H53       -13.6475    1.2045   61.4684 H       1  ZINC000263872566    0.1000
     54 H54       -13.1247    1.0244   63.1630 H       1  ZINC000263872566    0.0700
     55 H55       -11.0848   -3.3326   56.7686 H       1  ZINC000263872566    0.1300
     56 H56        -8.9843   -4.0525   55.7044 H       1  ZINC000263872566    0.1300
@<TRIPOS>BOND
     1     1     2    1
     2     1    28    1
     3     1    29    1
     4     1    30    1
     5     2     3    1
     6     2     4    1
     7     2     5    1
     8     4    31    1
     9     5    27   ar
    10     5     6   ar
    11     6     7   ar
    12     6    32    1
    13     7     8   ar
    14     7    33    1
    15     8     9    1
    16     8    26   ar
    17     9    10    1
    18     9    34    1
    19     9    35    1
    20    10    11   am
    21    10    36    1
    22    11    12    2
    23    11    13   am
    24    13    25    1
    25    13    14    1
    26    14    15    1
    27    14    37    1
    28    14    38    1
    29    15    16    1
    30    15    39    1
    31    15    40    1
    32    16    17    1
    33    16    24    1
    34    16    41    1
    35    17    18    2
    36    17    19    1
    37    19    20    1
    38    20    21    1
    39    20    22    1
    40    20    23    1
    41    21    42    1
    42    21    43    1
    43    21    44    1
    44    22    45    1
    45    22    46    1
    46    22    47    1
    47    23    48    1
    48    23    49    1
    49    23    50    1
    50    24    25    1
    51    24    51    1
    52    24    52    1
    53    25    53    1
    54    25    54    1
    55    26    27   ar
    56    26    55    1
    57    27    56    1
@<TRIPOS>SUBSTRUCTURE
     1 ZINC000263872566        1 TEMP              0 ****  ****    0 ROOT


##########                                Name:    ZINC000114394234
##########                DOCK_Rotatable_Bonds:                   9
##########                         Heavy_Atoms:                  27
##########                    Molecular_Weight:             365.392
##########                DOCK_Rotatable_Bonds:                   9
##########                       Formal_Charge:           0.0300002
##########                     HBond_Acceptors:                   8
##########                        HBond_Donors:                   3
##########                         Heavy_Atoms:                  27
##########                          Grid_Score:          -31.039660
##########                     Grid_vdw_energy:          -27.132965
##########                      Grid_es_energy:           -3.906694
##########           Internal_energy_repulsive:            7.651885

@<TRIPOS>MOLECULE
ZINC000114394234
 46 48 1 0 0
SMALL
USER_CHARGES


@<TRIPOS>ATOM
      1 C1        -13.9768    3.5552   62.6667 C.3     1  ZINC000114394234   -0.1600
      2 C2        -12.5021    3.1482   62.6492 C.3     1  ZINC000114394234    0.1300
      3 H3        -11.9554    3.7927   61.9607 H       1  ZINC000114394234    0.1200
      4 N4        -11.9416    3.2855   63.9958 N.am    1  ZINC000114394234   -0.7100
      5 C5        -10.6241    3.5195   64.1568 C.2     1  ZINC000114394234    0.5200
      6 O6         -9.9021    3.6148   63.1868 O.2     1  ZINC000114394234   -0.5100
      7 C7        -10.0479    3.6625   65.5418 C.3     1  ZINC000114394234    0.0400
      8 O8         -8.6216    3.7026   65.4627 O.3     1  ZINC000114394234   -0.2900
      9 C9         -7.9552    2.5534   65.7494 C.ar    1  ZINC000114394234    0.1300
     10 C10        -8.5018    1.3274   65.3990 C.ar    1  ZINC000114394234   -0.2100
     11 C11        -7.8221    0.1607   65.6912 C.ar    1  ZINC000114394234   -0.0800
     12 C12        -6.5984    0.2142   66.3325 C.ar    1  ZINC000114394234   -0.1600
     13 C13        -6.0518    1.4348   66.6833 C.ar    1  ZINC000114394234   -0.0800
     14 C14        -6.7246    2.6047   66.3878 C.ar    1  ZINC000114394234   -0.1500
     15 C15       -12.3817    1.7152   62.1986 C.2     1  ZINC000114394234    0.5100
     16 O16       -12.7641    0.8184   62.9202 O.2     1  ZINC000114394234   -0.5100
     17 N17       -11.8491    1.4300   60.9939 N.am    1  ZINC000114394234   -0.6700
     18 C18       -11.7373    0.0993   60.5756 C.ar    1  ZINC000114394234    0.1300
     19 C19       -10.5741   -0.6149   60.8341 C.ar    1  ZINC000114394234   -0.1200
     20 C20       -10.4601   -1.9295   60.4224 C.ar    1  ZINC000114394234   -0.1000
     21 C21       -11.5010   -2.5397   59.7519 C.ar    1  ZINC000114394234   -0.0900
     22 C22       -12.6715   -1.8305   59.4877 C.ar    1  ZINC000114394234    0.0000
     23 C23       -13.7913   -2.4850   58.7664 C.2     1  ZINC000114394234    0.2700
     24 N24       -14.5027   -3.4971   59.2123 N.2     1  ZINC000114394234   -0.3000
     25 N25       -15.4481   -3.7954   58.2176 N.pl3   1  ZINC000114394234   -0.4800
     26 C26       -15.2377   -2.9225   57.2159 C.2     1  ZINC000114394234    0.2700
     27 N27       -14.2486   -2.1389   57.5556 N.2     1  ZINC000114394234   -0.5300
     28 C28       -12.7899   -0.5087   59.9078 C.ar    1  ZINC000114394234   -0.0800
     29 H29       -14.5234    2.9108   63.3551 H       1  ZINC000114394234    0.0700
     30 H30       -14.0639    4.5917   62.9925 H       1  ZINC000114394234    0.0800
     31 H31       -14.3937    3.4530   61.6647 H       1  ZINC000114394234    0.0800
     32 H32       -12.5188    3.2080   64.7715 H       1  ZINC000114394234    0.4100
     33 H33       -10.4128    4.5849   65.9937 H       1  ZINC000114394234    0.1000
     34 H34       -10.3541    2.8130   66.1523 H       1  ZINC000114394234    0.1000
     35 H35        -9.4580    1.2850   64.8987 H       1  ZINC000114394234    0.1300
     36 H36        -8.2472   -0.7940   65.4186 H       1  ZINC000114394234    0.1300
     37 H37        -6.0687   -0.6990   66.5604 H       1  ZINC000114394234    0.1300
     38 H38        -5.0960    1.4740   67.1845 H       1  ZINC000114394234    0.1300
     39 H39        -6.2972    3.5579   66.6619 H       1  ZINC000114394234    0.1300
     40 H40       -11.5433    2.1472   60.4168 H       1  ZINC000114394234    0.4200
     41 H41        -9.7567   -0.1418   61.3578 H       1  ZINC000114394234    0.1300
     42 H42        -9.5538   -2.4806   60.6257 H       1  ZINC000114394234    0.1400
     43 H43       -11.4082   -3.5669   59.4313 H       1  ZINC000114394234    0.1400
     44 H44       -16.1205   -4.4939   58.2470 H       1  ZINC000114394234    0.4400
     45 H45       -15.7941   -2.8743   56.2914 H       1  ZINC000114394234    0.2300
     46 H46       -13.6949    0.0448   59.7056 H       1  ZINC000114394234    0.1500
@<TRIPOS>BOND
     1     1     2    1
     2     1    29    1
     3     1    30    1
     4     1    31    1
     5     2     3    1
     6     2     4    1
     7     2    15    1
     8     4     5   am
     9     4    32    1
    10     5     6    2
    11     5     7    1
    12     7     8    1
    13     7    33    1
    14     7    34    1
    15     8     9    1
    16     9    14   ar
    17     9    10   ar
    18    10    11   ar
    19    10    35    1
    20    11    12   ar
    21    11    36    1
    22    12    13   ar
    23    12    37    1
    24    13    14   ar
    25    13    38    1
    26    14    39    1
    27    15    16    2
    28    15    17   am
    29    17    18    1
    30    17    40    1
    31    18    28   ar
    32    18    19   ar
    33    19    20   ar
    34    19    41    1
    35    20    21   ar
    36    20    42    1
    37    21    22   ar
    38    21    43    1
    39    22    23    1
    40    22    28   ar
    41    23    27    1
    42    23    24    2
    43    24    25    1
    44    25    26    1
    45    25    44    1
    46    26    27    2
    47    26    45    1
    48    28    46    1
@<TRIPOS>SUBSTRUCTURE
     1 ZINC000114394234        1 TEMP              0 ****  ****    0 ROOT


##########                                Name:    ZINC000572257265
##########                DOCK_Rotatable_Bonds:                  11
##########                         Heavy_Atoms:                  24
##########                    Molecular_Weight:             393.509
##########                DOCK_Rotatable_Bonds:                  11
##########                       Formal_Charge:          -0.0100002
##########                     HBond_Acceptors:                  11
##########                        HBond_Donors:                   3
##########                         Heavy_Atoms:                  24
##########                          Grid_Score:          -31.009035
##########                     Grid_vdw_energy:          -26.932917
##########                      Grid_es_energy:           -4.076118
##########           Internal_energy_repulsive:            9.775287

@<TRIPOS>MOLECULE
ZINC000572257265
 43 43 1 0 0
SMALL
USER_CHARGES


@<TRIPOS>ATOM
      1 C1        -14.4582    3.8698   62.0041 C.3     1  ZINC000572257265   -0.1300
      2 S2        -14.5688    3.4845   63.7733 S.3     1  ZINC000572257265   -0.2200
      3 C3        -13.0590    4.2297   64.4483 C.3     1  ZINC000572257265   -0.1300
      4 C4        -12.1275    3.1262   64.9537 C.3     1  ZINC000572257265    0.1500
      5 C5        -10.9138    3.7573   65.6389 C.3     1  ZINC000572257265   -0.1500
      6 O6        -12.8277    2.3030   65.8886 O.3     1  ZINC000572257265   -0.5400
      7 C7        -11.6601    2.2728   63.7729 C.3     1  ZINC000572257265    0.0900
      8 N8        -11.0224    3.1316   62.7719 N.am    1  ZINC000572257265   -1.1100
      9 S9         -9.5595    2.7033   62.1246 S.o2    1  ZINC000572257265    2.6900
     10 O10        -9.2868    3.6419   61.0932 O.2     1  ZINC000572257265   -0.9400
     11 O11        -8.6853    2.4789   63.2223 O.2     1  ZINC000572257265   -0.9500
     12 C12        -9.7757    1.1437   61.3338 C.ar    1  ZINC000572257265   -0.6300
     13 C13        -9.2110    0.0069   61.8812 C.ar    1  ZINC000572257265   -0.0400
     14 C14        -9.3806   -1.2167   61.2608 C.ar    1  ZINC000572257265   -0.0400
     15 C15       -10.1153   -1.3035   60.0930 C.ar    1  ZINC000572257265   -0.6300
     16 S16       -10.3309   -2.8631   59.3018 S.o2    1  ZINC000572257265    2.7000
     17 O17       -10.1488   -3.8513   60.3066 O.2     1  ZINC000572257265   -0.9400
     18 O18       -11.5136   -2.7570   58.5214 O.2     1  ZINC000572257265   -0.9400
     19 N19        -9.0799   -3.0474   58.2325 N.am    1  ZINC000572257265   -1.1200
     20 C20        -7.6969   -3.0440   58.7156 C.3     1  ZINC000572257265    0.2200
     21 C21        -6.8269   -3.6870   57.7173 C.1     1  ZINC000572257265    0.1900
     22 N22        -6.1555   -4.1832   56.9469 N.1     1  ZINC000572257265   -0.3900
     23 C23       -10.6811   -0.1669   59.5462 C.ar    1  ZINC000572257265   -0.0400
     24 C24       -10.5146    1.0561   60.1688 C.ar    1  ZINC000572257265   -0.0400
     25 H25       -13.5517    3.4267   61.5917 H       1  ZINC000572257265    0.0800
     26 H26       -15.3284    3.4633   61.4886 H       1  ZINC000572257265    0.1000
     27 H27       -14.4281    4.9510   61.8688 H       1  ZINC000572257265    0.0800
     28 H28       -12.5558    4.8012   63.6684 H       1  ZINC000572257265    0.0900
     29 H29       -13.3187    4.8923   65.2740 H       1  ZINC000572257265    0.0900
     30 H30       -11.2468    4.3652   66.4801 H       1  ZINC000572257265    0.0800
     31 H31       -10.2501    2.9711   65.9990 H       1  ZINC000572257265    0.0700
     32 H32       -10.3797    4.3853   64.9257 H       1  ZINC000572257265    0.0800
     33 H33       -12.2603    1.6879   66.3731 H       1  ZINC000572257265    0.3800
     34 H34       -10.9441    1.5293   64.1229 H       1  ZINC000572257265    0.0900
     35 H35       -12.5176    1.7695   63.3265 H       1  ZINC000572257265    0.0800
     36 H36       -11.4570    3.9511   62.4883 H       1  ZINC000572257265    0.4300
     37 H37        -8.6370    0.0748   62.7936 H       1  ZINC000572257265    0.1500
     38 H38        -8.9388   -2.1047   61.6881 H       1  ZINC000572257265    0.1500
     39 H39        -9.2629   -3.1575   57.2864 H       1  ZINC000572257265    0.4300
     40 H40        -7.3699   -2.0164   58.8744 H       1  ZINC000572257265    0.1100
     41 H41        -7.6389   -3.5930   59.6554 H       1  ZINC000572257265    0.1300
     42 H42       -11.2554   -0.2349   58.6341 H       1  ZINC000572257265    0.1600
     43 H43       -10.9568    1.9440   59.7416 H       1  ZINC000572257265    0.1500
@<TRIPOS>BOND
     1     1     2    1
     2     1    25    1
     3     1    26    1
     4     1    27    1
     5     2     3    1
     6     3     4    1
     7     3    28    1
     8     3    29    1
     9     4     5    1
    10     4     6    1
    11     4     7    1
    12     5    30    1
    13     5    31    1
    14     5    32    1
    15     6    33    1
    16     7     8    1
    17     7    34    1
    18     7    35    1
    19     8     9   am
    20     8    36    1
    21     9    10    2
    22     9    11    2
    23     9    12    1
    24    12    24   ar
    25    12    13   ar
    26    13    14   ar
    27    13    37    1
    28    14    15   ar
    29    14    38    1
    30    15    16    1
    31    15    23   ar
    32    16    17    2
    33    16    18    2
    34    16    19   am
    35    19    20    1
    36    19    39    1
    37    20    21    1
    38    20    40    1
    39    20    41    1
    40    21    22    3
    41    23    24   ar
    42    23    42    1
    43    24    43    1
@<TRIPOS>SUBSTRUCTURE
     1 ZINC000572257265        1 TEMP              0 ****  ****    0 ROOT


##########                                Name:    ZINC000338927927
##########                DOCK_Rotatable_Bonds:                   9
##########                         Heavy_Atoms:                  23
##########                    Molecular_Weight:             336.286
##########                DOCK_Rotatable_Bonds:                   9
##########                       Formal_Charge:         -0.00999999
##########                     HBond_Acceptors:                   9
##########                        HBond_Donors:                   2
##########                         Heavy_Atoms:                  23
##########                          Grid_Score:          -30.985367
##########                     Grid_vdw_energy:          -32.258739
##########                      Grid_es_energy:            1.273372
##########           Internal_energy_repulsive:           10.203770

@<TRIPOS>MOLECULE
ZINC000338927927
 39 39 1 0 0
SMALL
USER_CHARGES


@<TRIPOS>ATOM
      1 C1        -11.1251    2.6018   63.4349 C.3     1  <0>        -0.1600
      2 C2        -11.2195    1.2734   62.6819 C.3     1  <0>        -0.1100
      3 C3         -9.8541    0.9278   62.0844 C.3     1  <0>        -0.1000
      4 H4         -9.3279    1.8465   61.8251 H       1  <0>         0.1400
      5 C5        -10.0450    0.0915   60.8454 C.2     1  <0>         0.5200
      6 O6         -9.6483    0.4965   59.7732 O.2     1  <0>        -0.4700
      7 N7        -10.6567   -1.1067   60.9287 N.am    1  <0>        -0.6700
      8 C8        -10.8340   -1.8832   59.7784 C.ar    1  <0>         0.2200
      9 C9        -12.1116   -2.2560   59.3819 C.ar    1  <0>        -0.2300
     10 C10       -12.2877   -3.0242   58.2440 C.ar    1  <0>         0.1700
     11 F11       -13.5316   -3.3857   57.8602 F       1  <0>        -0.1300
     12 C12       -11.1918   -3.4217   57.4989 C.ar    1  <0>        -0.2500
     13 C13        -9.9118   -3.0509   57.8920 C.ar    1  <0>         0.2600
     14 N14        -8.8057   -3.4528   57.1398 N.pl3   1  <0>        -0.7400
     15 C15        -7.5546   -3.8126   57.8117 C.3     1  <0>         0.0800
     16 C16        -6.5105   -4.2101   56.7666 C.3     1  <0>         0.4500
     17 F17        -6.7564   -5.5182   56.3357 F       1  <0>        -0.1800
     18 F18        -6.5869   -3.3376   55.6756 F       1  <0>        -0.1700
     19 F19        -5.2330   -4.1380   57.3326 F       1  <0>        -0.1800
     20 C20        -9.7336   -2.2764   59.0297 C.ar    1  <0>        -0.2000
     21 C21        -9.0456    0.1535   63.0933 C.2     1  <0>         0.4600
     22 O22        -8.2162   -0.6420   62.7206 O.2     1  <0>        -0.4600
     23 O23        -9.2470    0.3477   64.4061 O.3     1  <0>        -0.3500
     24 C24        -8.4845   -0.4838   65.3201 C.3     1  <0>         0.0300
     25 H25       -10.8203    3.3894   62.7459 H       1  <0>         0.0600
     26 H26       -12.0979    2.8480   63.8607 H       1  <0>         0.0600
     27 H27       -10.3900    2.5145   64.2350 H       1  <0>         0.0800
     28 H28       -11.5244    0.4859   63.3710 H       1  <0>         0.0800
     29 H29       -11.9546    1.3608   61.8818 H       1  <0>         0.0800
     30 H30       -10.9738   -1.4306   61.7862 H       1  <0>         0.4200
     31 H31       -12.9683   -1.9467   59.9621 H       1  <0>         0.1400
     32 H32       -11.3314   -4.0211   56.6114 H       1  <0>         0.1400
     33 H33        -8.8659   -3.4937   56.1727 H       1  <0>         0.4100
     34 H34        -7.1903   -2.9586   58.3828 H       1  <0>         0.1100
     35 H35        -7.7320   -4.6510   58.4852 H       1  <0>         0.1100
     36 H36        -8.7394   -1.9872   59.3367 H       1  <0>         0.1500
     37 H37        -8.7417   -0.2252   66.3473 H       1  <0>         0.1000
     38 H38        -8.7200   -1.5327   65.1396 H       1  <0>         0.0600
     39 H39        -7.4192   -0.3179   65.1595 H       1  <0>         0.0600
@<TRIPOS>BOND
     1     1     2    1
     2     1    25    1
     3     1    26    1
     4     1    27    1
     5     2     3    1
     6     2    28    1
     7     2    29    1
     8     3     4    1
     9     3     5    1
    10     3    21    1
    11     5     6    2
    12     5     7   am
    13     7     8    1
    14     7    30    1
    15     8    20   ar
    16     8     9   ar
    17     9    10   ar
    18     9    31    1
    19    10    11    1
    20    10    12   ar
    21    12    13   ar
    22    12    32    1
    23    13    14    1
    24    13    20   ar
    25    14    15    1
    26    14    33    1
    27    15    16    1
    28    15    34    1
    29    15    35    1
    30    16    17    1
    31    16    18    1
    32    16    19    1
    33    20    36    1
    34    21    22    2
    35    21    23    1
    36    23    24    1
    37    24    37    1
    38    24    38    1
    39    24    39    1
@<TRIPOS>SUBSTRUCTURE
     1 <0>         1 TEMP              0 ****  ****    0 ROOT


##########                                Name:    ZINC000355549087
##########                DOCK_Rotatable_Bonds:                   9
##########                         Heavy_Atoms:                  23
##########                    Molecular_Weight:             336.415
##########                DOCK_Rotatable_Bonds:                   9
##########                       Formal_Charge:        -9.53674e-07
##########                     HBond_Acceptors:                   8
##########                        HBond_Donors:                   4
##########                         Heavy_Atoms:                  23
##########                          Grid_Score:          -30.967999
##########                     Grid_vdw_energy:          -28.842129
##########                      Grid_es_energy:           -2.125869
##########           Internal_energy_repulsive:           28.786039

@<TRIPOS>MOLECULE
ZINC000355549087
 43 44 1 0 0
SMALL
USER_CHARGES


@<TRIPOS>ATOM
      1 C1        -12.1801    3.6935   64.1636 C.3     1  <0>        -0.1500
      2 C2        -13.2170    2.9133   63.3532 C.3     1  <0>        -0.1200
      3 C3        -12.5634    2.3634   62.0837 C.3     1  <0>        -0.1000
      4 H4        -11.7165    1.7331   62.3549 H       1  <0>         0.0800
      5 C5        -12.0770    3.5257   61.2159 C.3     1  <0>        -0.1500
      6 C6        -13.5853    1.5358   61.3015 C.3     1  <0>         0.0900
      7 H7        -14.2392    1.0123   61.9990 H       1  <0>         0.1000
      8 O8        -14.3660    2.4008   60.4743 O.3     1  <0>        -0.3500
      9 C9        -14.1136    2.2512   59.0758 C.3     1  <0>         0.0200
     10 C10       -12.8643    0.5320   60.4392 C.2     1  <0>         0.5100
     11 O11       -11.7275    0.7495   60.0769 O.2     1  <0>        -0.4800
     12 N12       -13.4826   -0.6074   60.0706 N.am    1  <0>        -0.6200
     13 C13       -12.8171   -1.5337   59.2769 C.2     1  <0>         0.2400
     14 N14       -11.5452   -1.7709   59.3264 N.2     1  <0>        -0.5000
     15 C15       -11.0733   -2.6908   58.4953 C.2     1  <0>         0.1700
     16 C16        -9.6376   -3.0677   58.4397 C.2     1  <0>        -0.1100
     17 C17        -8.7352   -2.9629   59.4591 C.2     1  <0>         0.0600
     18 N18        -7.5333   -3.4073   59.0171 N.pl3   1  <0>        -0.5400
     19 C19        -7.6607   -3.8013   57.7044 C.2     1  <0>        -0.0600
     20 C20        -6.5914   -4.3439   56.8591 C.2     1  <0>         0.5900
     21 N21        -5.3375   -3.8614   56.9660 N.am    1  <0>        -0.8600
     22 O22        -6.8366   -5.2297   56.0614 O.2     1  <0>        -0.5300
     23 C23        -8.9601   -3.6036   57.3285 C.2     1  <0>        -0.0600
     24 C24       -12.0075   -3.2530   57.7073 C.2     1  <0>        -0.3200
     25 S25       -13.5628   -2.5263   58.1022 S.3     1  <0>         0.2500
     26 H26       -12.6456    4.0853   65.0680 H       1  <0>         0.0600
     27 H27       -11.3583    3.0312   64.4357 H       1  <0>         0.0600
     28 H28       -11.7976    4.5200   63.5646 H       1  <0>         0.0600
     29 H29       -13.5994    2.0869   63.9521 H       1  <0>         0.0600
     30 H30       -14.0388    3.5756   63.0811 H       1  <0>         0.0700
     31 H31       -12.9239    4.1561   60.9448 H       1  <0>         0.0700
     32 H32       -11.3490    4.1154   61.7732 H       1  <0>         0.0600
     33 H33       -11.6113    3.1340   60.3116 H       1  <0>         0.0500
     34 H34       -14.6698    3.0086   58.5232 H       1  <0>         0.0900
     35 H35       -13.0474    2.3714   58.8840 H       1  <0>         0.0500
     36 H36       -14.4314    1.2597   58.7533 H       1  <0>         0.0500
     37 H37       -14.3923   -0.7809   60.3594 H       1  <0>         0.4200
     38 H38        -8.9440   -2.5889   60.4506 H       1  <0>         0.1800
     39 H39        -6.7172   -3.4417   59.5401 H       1  <0>         0.4200
     40 H40        -4.6302   -4.2210   56.4079 H       1  <0>         0.4000
     41 H41        -5.1423   -3.1546   57.6010 H       1  <0>         0.4100
     42 H42        -9.3856   -3.8134   56.3582 H       1  <0>         0.1500
     43 H43       -11.8348   -4.0182   56.9651 H       1  <0>         0.1800
@<TRIPOS>BOND
     1     1     2    1
     2     1    26    1
     3     1    27    1
     4     1    28    1
     5     2     3    1
     6     2    29    1
     7     2    30    1
     8     3     4    1
     9     3     5    1
    10     3     6    1
    11     5    31    1
    12     5    32    1
    13     5    33    1
    14     6     7    1
    15     6     8    1
    16     6    10    1
    17     8     9    1
    18     9    34    1
    19     9    35    1
    20     9    36    1
    21    10    11    2
    22    10    12   am
    23    12    13    1
    24    12    37    1
    25    13    25    1
    26    13    14    2
    27    14    15    1
    28    15    16    1
    29    15    24    2
    30    16    23    1
    31    16    17    2
    32    17    18    1
    33    17    38    1
    34    18    19    1
    35    18    39    1
    36    19    20    1
    37    19    23    2
    38    20    21   am
    39    20    22    2
    40    21    40    1
    41    21    41    1
    42    23    42    1
    43    24    25    1
    44    24    43    1
@<TRIPOS>SUBSTRUCTURE
     1 <0>         1 TEMP              0 ****  ****    0 ROOT


##########                                Name:    ZINC000558052810
##########                DOCK_Rotatable_Bonds:                   9
##########                         Heavy_Atoms:                  30
##########                    Molecular_Weight:             424.524
##########                DOCK_Rotatable_Bonds:                   9
##########                       Formal_Charge:          -0.0200002
##########                     HBond_Acceptors:                   8
##########                        HBond_Donors:                   1
##########                         Heavy_Atoms:                  30
##########                          Grid_Score:          -30.963196
##########                     Grid_vdw_energy:          -31.349520
##########                      Grid_es_energy:            0.386324
##########           Internal_energy_repulsive:           10.629006

@<TRIPOS>MOLECULE
ZINC000558052810
 54 56 1 0 0
SMALL
USER_CHARGES


@<TRIPOS>ATOM
      1 C1        -13.1358    2.9764   53.5917 C.3     1  ZINC000558052810   -0.1700
      2 C2        -12.1867    1.9942   54.2814 C.3     1  ZINC000558052810    0.1100
      3 N3        -11.8238    2.5122   55.6028 N.am    1  ZINC000558052810   -0.6100
      4 C4        -12.6359    2.1686   56.7727 C.3     1  ZINC000558052810    0.0700
      5 C5        -10.7427    3.3049   55.7422 C.2     1  ZINC000558052810    0.5600
      6 O6        -10.0688    3.5898   54.7716 O.2     1  ZINC000558052810   -0.5300
      7 C7        -10.3763    3.8277   57.0759 C.ar    1  ZINC000558052810   -0.1100
      8 C8        -10.5179    5.1872   57.3582 C.ar    1  ZINC000558052810   -0.1100
      9 C9        -10.1751    5.6728   58.6039 C.ar    1  ZINC000558052810   -0.1000
     10 C10        -9.6907    4.8170   59.5750 C.ar    1  ZINC000558052810   -0.1300
     11 C11        -9.5455    3.4615   59.3037 C.ar    1  ZINC000558052810    0.1400
     12 N12        -9.0543    2.5995   60.2899 N.am    1  ZINC000558052810   -0.6600
     13 C13        -9.9042    2.0100   61.1539 C.2     1  ZINC000558052810    0.5600
     14 O14       -11.0983    2.2273   61.0761 O.2     1  ZINC000558052810   -0.4800
     15 C15        -9.3868    1.1020   62.1927 C.ar    1  ZINC000558052810   -0.1900
     16 C16        -9.3348    1.5065   63.5315 C.ar    1  ZINC000558052810   -0.0200
     17 C17        -8.8403    0.6166   64.4686 C.ar    1  ZINC000558052810   -0.1900
     18 C18        -8.4150   -0.6356   64.0619 C.ar    1  ZINC000558052810    0.1500
     19 N19        -8.4713   -0.9989   62.7956 N.ar    1  ZINC000558052810   -0.4900
     20 C20        -8.9412   -0.1894   61.8580 C.ar    1  ZINC000558052810    0.1600
     21 S21        -8.9931   -0.7274   60.1809 S.3     1  ZINC000558052810    0.0600
     22 C22        -9.9040   -2.2792   60.3767 C.3     1  ZINC000558052810   -0.0700
     23 C23       -10.5202   -2.6698   59.0581 C.2     1  ZINC000558052810   -0.2000
     24 C24        -9.9441   -3.3471   58.0363 C.2     1  ZINC000558052810   -0.0100
     25 C25        -8.5324   -3.8720   57.9841 C.3     1  ZINC000558052810   -0.0800
     26 O26       -10.8774   -3.4582   57.0806 O.3     1  ZINC000558052810    0.1000
     27 N27       -11.9168   -2.9364   57.4116 N.2     1  ZINC000558052810   -0.3600
     28 C28       -11.8354   -2.4198   58.6037 C.2     1  ZINC000558052810    0.0300
     29 C29       -12.9244   -1.6910   59.3480 C.3     1  ZINC000558052810   -0.0800
     30 C30        -9.8933    2.9628   58.0580 C.ar    1  ZINC000558052810   -0.0700
     31 H31       -14.0358    3.0963   54.1947 H       1  ZINC000558052810    0.0600
     32 H32       -12.6417    3.9416   53.4804 H       1  ZINC000558052810    0.0600
     33 H33       -13.4058    2.5909   52.6085 H       1  ZINC000558052810    0.0700
     34 H34       -12.6808    1.0290   54.3926 H       1  ZINC000558052810    0.0800
     35 H35       -11.2867    1.8744   53.6783 H       1  ZINC000558052810    0.0800
     36 H36       -12.3048    1.2118   57.1764 H       1  ZINC000558052810    0.0600
     37 H37       -12.5239    2.9420   57.5325 H       1  ZINC000558052810    0.0800
     38 H38       -13.6832    2.0963   56.4795 H       1  ZINC000558052810    0.0700
     39 H39       -10.8954    5.8594   56.6018 H       1  ZINC000558052810    0.1400
     40 H40       -10.2854    6.7252   58.8203 H       1  ZINC000558052810    0.1400
     41 H41        -9.4238    5.2029   60.5478 H       1  ZINC000558052810    0.1300
     42 H42        -8.1019    2.4262   60.3519 H       1  ZINC000558052810    0.4100
     43 H43        -9.6721    2.4894   63.8258 H       1  ZINC000558052810    0.1400
     44 H44        -8.7864    0.8976   65.5099 H       1  ZINC000558052810    0.1500
     45 H45        -8.0295   -1.3283   64.7953 H       1  ZINC000558052810    0.1700
     46 H46        -9.2208   -3.0626   60.7047 H       1  ZINC000558052810    0.1000
     47 H47       -10.6901   -2.1478   61.1203 H       1  ZINC000558052810    0.1000
     48 H48        -8.5070   -4.8863   58.3824 H       1  ZINC000558052810    0.0900
     49 H49        -8.1852   -3.8786   56.9510 H       1  ZINC000558052810    0.0900
     50 H50        -7.8840   -3.2309   58.5814 H       1  ZINC000558052810    0.0900
     51 H51       -13.5041   -2.4043   59.9340 H       1  ZINC000558052810    0.0800
     52 H52       -12.4779   -0.9521   60.0133 H       1  ZINC000558052810    0.0800
     53 H53       -13.5790   -1.1895   58.6351 H       1  ZINC000558052810    0.0800
     54 H54        -9.7815    1.9098   57.8453 H       1  ZINC000558052810    0.1500
@<TRIPOS>BOND
     1     1     2    1
     2     1    31    1
     3     1    32    1
     4     1    33    1
     5     2     3    1
     6     2    34    1
     7     2    35    1
     8     3     4    1
     9     3     5   am
    10     4    36    1
    11     4    37    1
    12     4    38    1
    13     5     6    2
    14     5     7    1
    15     7    30   ar
    16     7     8   ar
    17     8     9   ar
    18     8    39    1
    19     9    10   ar
    20     9    40    1
    21    10    11   ar
    22    10    41    1
    23    11    12    1
    24    11    30   ar
    25    12    13   am
    26    12    42    1
    27    13    14    2
    28    13    15    1
    29    15    20   ar
    30    15    16   ar
    31    16    17   ar
    32    16    43    1
    33    17    18   ar
    34    17    44    1
    35    18    19   ar
    36    18    45    1
    37    19    20   ar
    38    20    21    1
    39    21    22    1
    40    22    23    1
    41    22    46    1
    42    22    47    1
    43    23    28    1
    44    23    24    2
    45    24    25    1
    46    24    26    1
    47    25    48    1
    48    25    49    1
    49    25    50    1
    50    26    27    1
    51    27    28    2
    52    28    29    1
    53    29    51    1
    54    29    52    1
    55    29    53    1
    56    30    54    1
@<TRIPOS>SUBSTRUCTURE
     1 ZINC000558052810        1 TEMP              0 ****  ****    0 ROOT


##########                                Name:    ZINC000274267583
##########                DOCK_Rotatable_Bonds:                   5
##########                         Heavy_Atoms:                  24
##########                    Molecular_Weight:             349.407
##########                DOCK_Rotatable_Bonds:                   5
##########                       Formal_Charge:           0.0300001
##########                     HBond_Acceptors:                   7
##########                        HBond_Donors:                   1
##########                         Heavy_Atoms:                  24
##########                          Grid_Score:          -30.942532
##########                     Grid_vdw_energy:          -30.510157
##########                      Grid_es_energy:           -0.432374
##########           Internal_energy_repulsive:           17.968998

@<TRIPOS>MOLECULE
ZINC000274267583
 43 45 1 0 0
SMALL
USER_CHARGES


@<TRIPOS>ATOM
      1 C1         -6.8240   -4.5225   56.2326 C.3     1  ZINC000274267583    0.0200
      2 O2         -6.8718   -4.1590   57.6137 O.3     1  ZINC000274267583   -0.3100
      3 C3         -8.0265   -3.6026   58.0656 C.ar    1  ZINC000274267583    0.1900
      4 C4         -9.1088   -3.4566   57.2100 C.ar    1  ZINC000274267583   -0.2300
      5 C5        -10.2816   -2.8911   57.6720 C.ar    1  ZINC000274267583    0.0300
      6 C6        -10.3771   -2.4705   58.9856 C.ar    1  ZINC000274267583   -0.7200
      7 S7        -11.8740   -1.7492   59.5715 S.o2    1  ZINC000274267583    2.7000
      8 O8        -12.4224   -1.0213   58.4811 O.2     1  ZINC000274267583   -0.9500
      9 O9        -12.5778   -2.7805   60.2499 O.2     1  ZINC000274267583   -0.9500
     10 N10       -11.4621   -0.6301   60.7206 N.am    1  ZINC000274267583   -1.1100
     11 C11       -10.5984    0.4992   60.3669 C.3     1  ZINC000274267583    0.2100
     12 H12        -9.8231    0.1612   59.6793 H       1  ZINC000274267583    0.1000
     13 C13       -11.4358    1.5895   59.6941 C.3     1  ZINC000274267583   -0.1800
     14 C14       -10.5853    2.8629   59.6024 C.3     1  ZINC000274267583    0.0600
     15 O15       -10.3117    3.3181   60.9282 O.3     1  ZINC000274267583   -0.3100
     16 C16        -9.8410    2.4124   61.8261 C.ar    1  ZINC000274267583    0.1100
     17 C17        -9.2305    2.8832   62.9837 C.ar    1  ZINC000274267583   -0.1100
     18 C18        -8.7434    1.9977   63.9233 C.ar    1  ZINC000274267583   -0.1600
     19 C19        -8.8630    0.6321   63.7134 C.ar    1  ZINC000274267583    0.0900
     20 O20        -8.3867   -0.2436   64.6383 O.3     1  ZINC000274267583   -0.3200
     21 C21        -8.1196    0.2730   65.9437 C.3     1  ZINC000274267583    0.0300
     22 C22        -9.4691    0.1617   62.5594 C.ar    1  ZINC000274267583   -0.1000
     23 C23        -9.9567    1.0501   61.6151 C.ar    1  ZINC000274267583   -0.1400
     24 C24        -9.3000   -2.6153   59.8404 C.ar    1  ZINC000274267583    0.0200
     25 C25        -8.1267   -3.1849   59.3848 C.ar    1  ZINC000274267583   -0.1700
     26 H26        -7.6038   -5.2545   56.0223 H       1  ZINC000274267583    0.0600
     27 H27        -6.9822   -3.6363   55.6180 H       1  ZINC000274267583    0.0600
     28 H28        -5.8494   -4.9539   56.0040 H       1  ZINC000274267583    0.1100
     29 H29        -9.0345   -3.7843   56.1837 H       1  ZINC000274267583    0.1400
     30 H30       -11.1243   -2.7773   57.0063 H       1  ZINC000274267583    0.1400
     31 H31       -11.7925   -0.7224   61.6279 H       1  ZINC000274267583    0.4200
     32 H32       -11.7233    1.2669   58.6934 H       1  ZINC000274267583    0.1000
     33 H33       -12.3285    1.7860   60.2879 H       1  ZINC000274267583    0.0900
     34 H34        -9.6491    2.6429   59.0893 H       1  ZINC000274267583    0.0700
     35 H35       -11.1323    3.6312   59.0560 H       1  ZINC000274267583    0.1200
     36 H36        -9.1370    3.9466   63.1478 H       1  ZINC000274267583    0.1400
     37 H37        -8.2695    2.3676   64.8204 H       1  ZINC000274267583    0.1400
     38 H38        -7.3716    1.0630   65.8758 H       1  ZINC000274267583    0.0600
     39 H39        -9.0380    0.6777   66.3691 H       1  ZINC000274267583    0.0600
     40 H40        -7.7456   -0.5277   66.5817 H       1  ZINC000274267583    0.1000
     41 H41        -9.5619   -0.9018   62.3960 H       1  ZINC000274267583    0.1300
     42 H42        -9.3771   -2.2863   60.8662 H       1  ZINC000274267583    0.1500
     43 H43        -7.2858   -3.2979   60.0528 H       1  ZINC000274267583    0.1400
@<TRIPOS>BOND
     1     1     2    1
     2     1    26    1
     3     1    27    1
     4     1    28    1
     5     2     3    1
     6     3    25   ar
     7     3     4   ar
     8     4     5   ar
     9     4    29    1
    10     5     6   ar
    11     5    30    1
    12     6     7    1
    13     6    24   ar
    14     7     8    2
    15     7     9    2
    16     7    10   am
    17    10    11    1
    18    10    31    1
    19    11    12    1
    20    11    23    1
    21    11    13    1
    22    13    14    1
    23    13    32    1
    24    13    33    1
    25    14    15    1
    26    14    34    1
    27    14    35    1
    28    15    16    1
    29    16    23   ar
    30    16    17   ar
    31    17    18   ar
    32    17    36    1
    33    18    19   ar
    34    18    37    1
    35    19    20    1
    36    19    22   ar
    37    20    21    1
    38    21    38    1
    39    21    39    1
    40    21    40    1
    41    22    23   ar
    42    22    41    1
    43    24    25   ar
    44    24    42    1
    45    25    43    1
@<TRIPOS>SUBSTRUCTURE
     1 ZINC000274267583        1 TEMP              0 ****  ****    0 ROOT


##########                                Name:    ZINC000654382142
##########                DOCK_Rotatable_Bonds:                  14
##########                         Heavy_Atoms:                  24
##########                    Molecular_Weight:             379.401
##########                DOCK_Rotatable_Bonds:                  14
##########                       Formal_Charge:          0.00999933
##########                     HBond_Acceptors:                  12
##########                        HBond_Donors:                   2
##########                         Heavy_Atoms:                  24
##########                          Grid_Score:          -30.927788
##########                     Grid_vdw_energy:          -28.967024
##########                      Grid_es_energy:           -1.960764
##########           Internal_energy_repulsive:           20.809334

@<TRIPOS>MOLECULE
ZINC000654382142
 48 47 1 0 0
SMALL
USER_CHARGES


@<TRIPOS>ATOM
      1 C1         -6.7807   -0.0101   66.2975 C.3     1  ZINC000654382142    0.0300
      2 O2         -8.1355   -0.4125   66.0858 O.3     1  ZINC000654382142   -0.3700
      3 C3         -8.9554    0.5962   65.4922 C.3     1  ZINC000654382142    0.0400
      4 C4         -8.7446    0.5983   63.9768 C.3     1  ZINC000654382142    0.1400
      5 N5         -9.7854    1.4091   63.3401 N.am    1  ZINC000654382142   -0.6100
      6 C6        -10.3206    2.5863   64.0285 C.3     1  ZINC000654382142    0.0800
      7 C7         -9.2074    3.6198   64.2119 C.3     1  ZINC000654382142    0.0500
      8 H8         -8.2725    3.1096   64.4438 H       1  ZINC000654382142    0.1400
      9 O9         -9.5477    4.5012   65.2841 O.3     1  ZINC000654382142   -0.5200
     10 C10        -9.0423    4.4259   62.9219 C.3     1  ZINC000654382142    0.4200
     11 F11       -10.3023    4.7051   62.3820 F       1  ZINC000654382142   -0.1800
     12 F12        -8.3792    5.6252   63.2032 F       1  ZINC000654382142   -0.1700
     13 F13        -8.2943    3.6843   62.0012 F       1  ZINC000654382142   -0.1800
     14 C14       -10.2505    1.0721   62.1209 C.2     1  ZINC000654382142    0.7100
     15 O15       -11.1133    1.7460   61.5917 O.2     1  ZINC000654382142   -0.5600
     16 N16        -9.7593   -0.0118   61.4882 N.am    1  ZINC000654382142   -0.7500
     17 C17       -10.2663   -0.3791   60.1636 C.3     1  ZINC000654382142    0.1400
     18 C18       -11.4279   -1.3630   60.3169 C.3     1  ZINC000654382142   -0.1600
     19 C19       -12.4015   -1.1885   59.1497 C.3     1  ZINC000654382142    0.1200
     20 N20       -13.2278   -2.3911   59.0190 N.am    1  ZINC000654382142   -1.0000
     21 C21       -14.1384   -2.7754   60.1003 C.3     1  ZINC000654382142    0.0900
     22 S22       -13.1325   -3.3162   57.6487 S.o2    1  ZINC000654382142    2.6100
     23 C23       -13.6109   -2.1910   56.3087 C.3     1  ZINC000654382142   -0.6800
     24 O24       -11.7558   -3.6538   57.5489 O.2     1  ZINC000654382142   -0.9500
     25 O25       -14.1213   -4.3198   57.8340 O.2     1  ZINC000654382142   -0.9500
     26 H26        -6.2245   -0.8306   66.7508 H       1  ZINC000654382142    0.0900
     27 H27        -6.3263    0.2529   65.3422 H       1  ZINC000654382142    0.0400
     28 H28        -6.7579    0.8545   66.9609 H       1  ZINC000654382142    0.0400
     29 H29       -10.0026    0.3897   65.7131 H       1  ZINC000654382142    0.0500
     30 H30        -8.6838    1.5706   65.8982 H       1  ZINC000654382142    0.0600
     31 H31        -7.7654    1.0181   63.7468 H       1  ZINC000654382142    0.0900
     32 H32        -8.7992   -0.4235   63.6011 H       1  ZINC000654382142    0.1000
     33 H33       -11.1249    3.0201   63.4345 H       1  ZINC000654382142    0.1000
     34 H34       -10.7074    2.2919   65.0042 H       1  ZINC000654382142    0.1000
     35 H35        -9.4665    4.1030   66.1615 H       1  ZINC000654382142    0.3900
     36 H36        -9.0702   -0.5486   61.9097 H       1  ZINC000654382142    0.3900
     37 H37       -10.6136    0.5155   59.6466 H       1  ZINC000654382142    0.0700
     38 H38        -9.4685   -0.8460   59.5859 H       1  ZINC000654382142    0.0700
     39 H39       -11.0426   -2.3826   60.3193 H       1  ZINC000654382142    0.0700
     40 H40       -11.9472   -1.1686   61.2553 H       1  ZINC000654382142    0.0800
     41 H41       -13.0418   -0.3262   59.3363 H       1  ZINC000654382142    0.0900
     42 H42       -11.8400   -1.0315   58.2286 H       1  ZINC000654382142    0.1000
     43 H43       -15.1110   -2.3108   59.9386 H       1  ZINC000654382142    0.0600
     44 H44       -14.2509   -3.8595   60.1126 H       1  ZINC000654382142    0.0700
     45 H45       -13.7305   -2.4416   61.0545 H       1  ZINC000654382142    0.0700
     46 H46       -12.9211   -1.3475   56.2790 H       1  ZINC000654382142    0.1300
     47 H47       -13.5758   -2.7227   55.3578 H       1  ZINC000654382142    0.1300
     48 H48       -14.6231   -1.8266   56.4842 H       1  ZINC000654382142    0.1300
@<TRIPOS>BOND
     1     1     2    1
     2     1    26    1
     3     1    27    1
     4     1    28    1
     5     2     3    1
     6     3     4    1
     7     3    29    1
     8     3    30    1
     9     4     5    1
    10     4    31    1
    11     4    32    1
    12     5     6    1
    13     5    14   am
    14     6     7    1
    15     6    33    1
    16     6    34    1
    17     7     8    1
    18     7     9    1
    19     7    10    1
    20     9    35    1
    21    10    11    1
    22    10    12    1
    23    10    13    1
    24    14    15    2
    25    14    16   am
    26    16    17    1
    27    16    36    1
    28    17    18    1
    29    17    37    1
    30    17    38    1
    31    18    19    1
    32    18    39    1
    33    18    40    1
    34    19    20    1
    35    19    41    1
    36    19    42    1
    37    20    21    1
    38    20    22   am
    39    21    43    1
    40    21    44    1
    41    21    45    1
    42    22    23    1
    43    22    24    2
    44    22    25    2
    45    23    46    1
    46    23    47    1
    47    23    48    1
@<TRIPOS>SUBSTRUCTURE
     1 ZINC000654382142        1 TEMP              0 ****  ****    0 ROOT


##########                                Name:    ZINC000552360217
##########                DOCK_Rotatable_Bonds:                  13
##########                         Heavy_Atoms:                  27
##########                    Molecular_Weight:             401.484
##########                DOCK_Rotatable_Bonds:                  13
##########                       Formal_Charge:          -0.0100002
##########                     HBond_Acceptors:                  10
##########                        HBond_Donors:                   3
##########                         Heavy_Atoms:                  27
##########                          Grid_Score:          -30.900646
##########                     Grid_vdw_energy:          -31.299084
##########                      Grid_es_energy:            0.398438
##########           Internal_energy_repulsive:           17.268877

@<TRIPOS>MOLECULE
ZINC000552360217
 54 54 1 0 0
SMALL
USER_CHARGES


@<TRIPOS>ATOM
      1 C1        -14.0994   -2.7836   59.5735 C.3     1  ZINC000552360217    0.0800
      2 N2        -13.7705   -3.0740   58.1757 N.am    1  ZINC000552360217   -1.0000
      3 C3        -14.4771   -4.1417   57.4636 C.3     1  ZINC000552360217    0.0900
      4 S4        -12.6002   -2.1954   57.4006 S.o2    1  ZINC000552360217    2.7000
      5 O5        -12.4121   -2.8083   56.1325 O.2     1  ZINC000552360217   -0.9500
      6 O6        -12.9544   -0.8283   57.5583 O.2     1  ZINC000552360217   -0.9500
      7 C7        -11.0983   -2.4263   58.2925 C.ar    1  ZINC000552360217   -0.6900
      8 C8        -10.1809   -3.3703   57.8669 C.ar    1  ZINC000552360217    0.0100
      9 C9         -8.9988   -3.5576   58.5614 C.ar    1  ZINC000552360217   -0.1400
     10 C10        -8.7277   -2.8031   59.6838 C.ar    1  ZINC000552360217   -0.0300
     11 C11        -9.6491   -1.8488   60.1187 C.ar    1  ZINC000552360217   -0.1600
     12 C12        -9.3650   -1.0363   61.3207 C.2     1  ZINC000552360217    0.5600
     13 O13        -8.7207   -1.5099   62.2362 O.2     1  ZINC000552360217   -0.5300
     14 N14        -9.8202    0.2297   61.4014 N.am    1  ZINC000552360217   -0.7100
     15 C15        -9.5372    1.0355   62.5917 C.3     1  ZINC000552360217    0.1000
     16 C16        -9.7322    2.4945   62.2687 C.2     1  ZINC000552360217    0.5100
     17 O17       -10.0607    3.2701   63.1413 O.2     1  ZINC000552360217   -0.5400
     18 N18        -9.5418    2.9373   61.0100 N.am    1  ZINC000552360217   -0.7200
     19 C19        -9.7298    4.3560   60.6964 C.3     1  ZINC000552360217    0.1400
     20 C20       -10.2231    4.4985   59.2551 C.3     1  ZINC000552360217    0.1000
     21 C21       -11.5794    3.8056   59.1095 C.3     1  ZINC000552360217   -0.1800
     22 C22       -10.3686    5.9820   58.9102 C.3     1  ZINC000552360217   -0.1800
     23 O23        -9.2812    3.8932   58.3672 O.3     1  ZINC000552360217   -0.3700
     24 C24        -7.9760    4.4722   58.4214 C.3     1  ZINC000552360217    0.0600
     25 C25        -7.0578    3.7540   57.4305 C.3     1  ZINC000552360217    0.0800
     26 O26        -7.5903    3.8801   56.1104 O.3     1  ZINC000552360217   -0.5700
     27 C27       -10.8371   -1.6613   59.4107 C.ar    1  ZINC000552360217    0.0400
     28 H28       -13.4701   -3.3871   60.2277 H       1  ZINC000552360217    0.0600
     29 H29       -13.9254   -1.7267   59.7757 H       1  ZINC000552360217    0.0900
     30 H30       -15.1473   -3.0210   59.7571 H       1  ZINC000552360217    0.0800
     31 H31       -15.2048   -4.6037   58.1307 H       1  ZINC000552360217    0.0800
     32 H32       -14.9916   -3.7229   56.5987 H       1  ZINC000552360217    0.0700
     33 H33       -13.7605   -4.8929   57.1314 H       1  ZINC000552360217    0.0600
     34 H34       -10.3885   -3.9639   56.9888 H       1  ZINC000552360217    0.1500
     35 H35        -8.2870   -4.2965   58.2240 H       1  ZINC000552360217    0.1400
     36 H36        -7.8049   -2.9505   60.2251 H       1  ZINC000552360217    0.1400
     37 H37       -10.3354    0.6074   60.6714 H       1  ZINC000552360217    0.4100
     38 H38       -10.2153    0.7475   63.3951 H       1  ZINC000552360217    0.1000
     39 H39        -8.5075    0.8677   62.9076 H       1  ZINC000552360217    0.1000
     40 H40        -9.2803    2.3167   60.3119 H       1  ZINC000552360217    0.4100
     41 H41       -10.4662    4.7840   61.3765 H       1  ZINC000552360217    0.0800
     42 H42        -8.7817    4.8818   60.8097 H       1  ZINC000552360217    0.0900
     43 H43       -12.2979    4.2674   59.7867 H       1  ZINC000552360217    0.0700
     44 H44       -11.9308    3.9071   58.0827 H       1  ZINC000552360217    0.0700
     45 H45       -11.4758    2.7487   59.3552 H       1  ZINC000552360217    0.0700
     46 H46        -9.4023    6.4756   59.0140 H       1  ZINC000552360217    0.0600
     47 H47       -10.7200    6.0835   57.8834 H       1  ZINC000552360217    0.0700
     48 H48       -11.0870    6.4437   59.5875 H       1  ZINC000552360217    0.0700
     49 H49        -8.0361    5.5289   58.1609 H       1  ZINC000552360217    0.0600
     50 H50        -7.5742    4.3688   59.4295 H       1  ZINC000552360217    0.0700
     51 H51        -6.0644    4.2014   57.4657 H       1  ZINC000552360217    0.0600
     52 H52        -6.9908    2.6991   57.6961 H       1  ZINC000552360217    0.0500
     53 H53        -8.4794    3.5136   56.0084 H       1  ZINC000552360217    0.3800
     54 H54       -11.5540   -0.9246   59.7420 H       1  ZINC000552360217    0.1500
@<TRIPOS>BOND
     1     1     2    1
     2     1    28    1
     3     1    29    1
     4     1    30    1
     5     2     3    1
     6     2     4   am
     7     3    31    1
     8     3    32    1
     9     3    33    1
    10     4     5    2
    11     4     6    2
    12     4     7    1
    13     7    27   ar
    14     7     8   ar
    15     8     9   ar
    16     8    34    1
    17     9    10   ar
    18     9    35    1
    19    10    11   ar
    20    10    36    1
    21    11    12    1
    22    11    27   ar
    23    12    13    2
    24    12    14   am
    25    14    15    1
    26    14    37    1
    27    15    16    1
    28    15    38    1
    29    15    39    1
    30    16    17    2
    31    16    18   am
    32    18    19    1
    33    18    40    1
    34    19    20    1
    35    19    41    1
    36    19    42    1
    37    20    21    1
    38    20    22    1
    39    20    23    1
    40    21    43    1
    41    21    44    1
    42    21    45    1
    43    22    46    1
    44    22    47    1
    45    22    48    1
    46    23    24    1
    47    24    25    1
    48    24    49    1
    49    24    50    1
    50    25    26    1
    51    25    51    1
    52    25    52    1
    53    26    53    1
    54    27    54    1
@<TRIPOS>SUBSTRUCTURE
     1 ZINC000552360217        1 TEMP              0 ****  ****    0 ROOT


##########                                Name:    ZINC001248546333
##########                DOCK_Rotatable_Bonds:                   6
##########                         Heavy_Atoms:                  27
##########                    Molecular_Weight:             378.397
##########                DOCK_Rotatable_Bonds:                   6
##########                       Formal_Charge:         3.94881e-07
##########                     HBond_Acceptors:                   8
##########                        HBond_Donors:                   1
##########                         Heavy_Atoms:                  27
##########                          Grid_Score:          -30.899839
##########                     Grid_vdw_energy:          -30.171152
##########                      Grid_es_energy:           -0.728687
##########           Internal_energy_repulsive:           31.981050

@<TRIPOS>MOLECULE
ZINC001248546333
 48 50 1 0 0
SMALL
USER_CHARGES


@<TRIPOS>ATOM
      1 C1         -8.6286    4.6272   66.2970 C.3     1  ZINC001248546333   -0.1200
      2 C2         -9.8934    4.2661   65.5614 C.ar    1  ZINC001248546333   -0.0800
      3 C3        -11.1086    4.7686   65.9904 C.ar    1  ZINC001248546333   -0.1200
      4 C4        -12.2744    4.4419   65.3205 C.ar    1  ZINC001248546333   -0.1100
      5 C5        -12.2312    3.6123   64.2191 C.ar    1  ZINC001248546333   -0.1100
      6 C6        -11.0084    3.1024   63.7809 C.ar    1  ZINC001248546333   -0.0600
      7 C7        -10.9548    2.2129   62.6015 C.2     1  ZINC001248546333   -0.0600
      8 C8         -9.7827    1.7551   62.2335 C.2     1  ZINC001248546333   -0.1700
      9 C9         -9.5801    0.8573   61.0446 C.3     1  ZINC001248546333    0.1500
     10 N10       -10.8885    0.3892   60.5653 N.am    1  ZINC001248546333   -0.6300
     11 C11       -11.0858   -0.8956   60.2090 C.2     1  ZINC001248546333    0.7200
     12 O12       -12.1782   -1.2565   59.8158 O.2     1  ZINC001248546333   -0.5800
     13 N13       -10.0721   -1.7802   60.2885 N.am    1  ZINC001248546333   -0.7500
     14 C14       -10.2865   -3.1767   59.9012 C.3     1  ZINC001248546333    0.2000
     15 C15        -9.6289   -3.4354   58.5701 C.2     1  ZINC001248546333    0.0700
     16 C16        -8.3137   -3.6774   58.3636 C.2     1  ZINC001248546333   -0.2000
     17 C17        -8.1209   -3.8640   56.9908 C.2     1  ZINC001248546333   -0.0200
     18 C18        -6.8065   -4.1593   56.3153 C.3     1  ZINC001248546333    0.5600
     19 F19        -6.5457   -5.5321   56.3825 F       1  ZINC001248546333   -0.1700
     20 F20        -6.8711   -3.7619   54.9755 F       1  ZINC001248546333   -0.1700
     21 F21        -5.7825   -3.4580   56.9608 F       1  ZINC001248546333   -0.1600
     22 N22        -9.2787   -3.7388   56.3947 N.2     1  ZINC001248546333   -0.2200
     23 N23       -10.2473   -3.4732   57.3713 N.pl3   1  ZINC001248546333   -0.3400
     24 C24       -11.6776   -3.2644   57.1322 C.3     1  ZINC001248546333    0.0900
     25 C25       -11.9754    1.3807   60.4896 C.3     1  ZINC001248546333    0.1300
     26 C26       -12.2457    1.8899   61.9097 C.3     1  ZINC001248546333   -0.1000
     27 C27        -9.8360    3.4395   64.4579 C.ar    1  ZINC001248546333   -0.1100
     28 H28        -8.2041    5.5341   65.8664 H       1  ZINC001248546333    0.0700
     29 H29        -8.8561    4.7967   67.3494 H       1  ZINC001248546333    0.0700
     30 H30        -7.9107    3.8118   66.2072 H       1  ZINC001248546333    0.0700
     31 H31       -11.1477    5.4184   66.8521 H       1  ZINC001248546333    0.1200
     32 H32       -13.2201    4.8369   65.6609 H       1  ZINC001248546333    0.1200
     33 H33       -13.1419    3.3578   63.6973 H       1  ZINC001248546333    0.1200
     34 H34        -8.9173    2.0378   62.8146 H       1  ZINC001248546333    0.1200
     35 H35        -9.0784    1.4112   60.2512 H       1  ZINC001248546333    0.0800
     36 H36        -8.9707    0.0012   61.3343 H       1  ZINC001248546333    0.0800
     37 H37        -9.2005   -1.4923   60.6021 H       1  ZINC001248546333    0.4000
     38 H38        -9.8520   -3.8335   60.6549 H       1  ZINC001248546333    0.1000
     39 H39       -11.3559   -3.3719   59.8223 H       1  ZINC001248546333    0.0900
     40 H40        -7.5481   -3.7186   59.1242 H       1  ZINC001248546333    0.1700
     41 H41       -12.1979   -4.2209   57.1823 H       1  ZINC001248546333    0.0900
     42 H42       -12.0784   -2.5925   57.8912 H       1  ZINC001248546333    0.1000
     43 H43       -11.8205   -2.8242   56.1454 H       1  ZINC001248546333    0.1000
     44 H44       -11.6745    2.2091   59.8482 H       1  ZINC001248546333    0.0700
     45 H45       -12.8747    0.9121   60.0900 H       1  ZINC001248546333    0.1000
     46 H46       -12.7808    1.1242   62.4714 H       1  ZINC001248546333    0.0800
     47 H47       -12.8581    2.7902   61.8592 H       1  ZINC001248546333    0.0900
     48 H48        -8.8864    3.0481   64.1237 H       1  ZINC001248546333    0.1200
@<TRIPOS>BOND
     1     1     2    1
     2     1    28    1
     3     1    29    1
     4     1    30    1
     5     2    27   ar
     6     2     3   ar
     7     3     4   ar
     8     3    31    1
     9     4     5   ar
    10     4    32    1
    11     5     6   ar
    12     5    33    1
    13     6     7    1
    14     6    27   ar
    15     7    26    1
    16     7     8    2
    17     8     9    1
    18     8    34    1
    19     9    10    1
    20     9    35    1
    21     9    36    1
    22    10    11   am
    23    10    25    1
    24    11    12    2
    25    11    13   am
    26    13    14    1
    27    13    37    1
    28    14    15    1
    29    14    38    1
    30    14    39    1
    31    15    23    1
    32    15    16    2
    33    16    17    1
    34    16    40    1
    35    17    18    1
    36    17    22    2
    37    18    19    1
    38    18    20    1
    39    18    21    1
    40    22    23    1
    41    23    24    1
    42    24    41    1
    43    24    42    1
    44    24    43    1
    45    25    26    1
    46    25    44    1
    47    25    45    1
    48    26    46    1
    49    26    47    1
    50    27    48    1
@<TRIPOS>SUBSTRUCTURE
     1 ZINC001248546333        1 TEMP              0 ****  ****    0 ROOT


##########                                Name:    ZINC000980108339
##########                DOCK_Rotatable_Bonds:                   9
##########                         Heavy_Atoms:                  25
##########                    Molecular_Weight:             348.445
##########                DOCK_Rotatable_Bonds:                   9
##########                       Formal_Charge:          -0.0100001
##########                     HBond_Acceptors:                   7
##########                        HBond_Donors:                   3
##########                         Heavy_Atoms:                  25
##########                          Grid_Score:          -30.890898
##########                     Grid_vdw_energy:          -29.228218
##########                      Grid_es_energy:           -1.662679
##########           Internal_energy_repulsive:           15.387174

@<TRIPOS>MOLECULE
ZINC000980108339
 53 56 1 0 0
SMALL
USER_CHARGES


@<TRIPOS>ATOM
      1 C1         -7.7193   -3.3881   58.6879 C.3     1  ZINC000980108339    0.1200
      2 N2         -8.9718   -2.7302   59.0684 N.am    1  ZINC000980108339   -0.6400
      3 C3         -9.1531   -1.8523   60.2342 C.3     1  ZINC000980108339    0.1100
      4 C4        -10.6368   -1.4426   60.1606 C.3     1  ZINC000980108339    0.1000
      5 H5        -11.1721   -1.7824   61.0472 H       1  ZINC000980108339    0.1200
      6 C6        -10.7661    0.0510   60.0065 C.2     1  ZINC000980108339    0.5000
      7 O7        -11.7876    0.5283   59.5597 O.2     1  ZINC000980108339   -0.5200
      8 N8         -9.7467    0.8562   60.3654 N.am    1  ZINC000980108339   -0.7200
      9 C9         -9.8717    2.3079   60.2141 C.3     1  ZINC000980108339    0.1300
     10 C10        -9.3792    2.7203   58.8254 C.3     1  ZINC000980108339   -0.1200
     11 H11        -9.0595    1.8718   58.2205 H       1  ZINC000980108339    0.1000
     12 C12       -10.3353    3.6749   58.0911 C.3     1  ZINC000980108339   -0.1400
     13 C13        -9.0851    4.4270   57.6050 C.3     1  ZINC000980108339    0.1200
     14 H14        -9.1986    5.5111   57.6090 H       1  ZINC000980108339    0.1100
     15 N15        -8.5471    3.9160   56.3418 N.am    1  ZINC000980108339   -0.7200
     16 C16        -7.4049    4.4262   55.8403 C.2     1  ZINC000980108339    0.5200
     17 O17        -6.8217    5.3075   56.4356 O.2     1  ZINC000980108339   -0.5300
     18 C18        -6.8523    3.9018   54.5400 C.3     1  ZINC000980108339   -0.1100
     19 C19        -7.7398    4.3675   53.3840 C.3     1  ZINC000980108339   -0.1300
     20 H20        -7.8952    5.4442   53.3147 H       1  ZINC000980108339    0.1200
     21 C21        -8.9000    3.4585   52.9735 C.3     1  ZINC000980108339   -0.1700
     22 C22        -7.6665    3.5787   52.0750 C.3     1  ZINC000980108339   -0.1200
     23 H23        -6.9864    2.7278   52.0375 H       1  ZINC000980108339    0.1000
     24 C24        -7.8177    4.3609   50.7688 C.3     1  ZINC000980108339   -0.1300
     25 C25        -9.1669    4.2837   50.0513 C.3     1  ZINC000980108339   -0.1800
     26 C26        -8.7566    5.5688   50.7733 C.3     1  ZINC000980108339   -0.1800
     27 C27        -8.3653    3.8764   58.8495 C.3     1  ZINC000980108339   -0.1400
     28 N28       -11.1340   -2.1331   58.9612 N.am    1  ZINC000980108339   -0.7200
     29 C29       -10.1322   -2.8282   58.4066 C.2     1  ZINC000980108339    0.7000
     30 O30       -10.2664   -3.4951   57.3988 O.2     1  ZINC000980108339   -0.5800
     31 H31        -7.8766   -3.9719   57.7809 H       1  ZINC000980108339    0.0900
     32 H32        -6.9534   -2.6340   58.5063 H       1  ZINC000980108339    0.0600
     33 H33        -7.3961   -4.0477   59.4932 H       1  ZINC000980108339    0.0600
     34 H34        -8.9515   -2.3957   61.1574 H       1  ZINC000980108339    0.1000
     35 H35        -8.5099   -0.9758   60.1567 H       1  ZINC000980108339    0.0900
     36 H36        -8.9301    0.4745   60.7240 H       1  ZINC000980108339    0.4000
     37 H37       -10.9163    2.5966   60.3296 H       1  ZINC000980108339    0.0700
     38 H38        -9.2709    2.8056   60.9752 H       1  ZINC000980108339    0.0700
     39 H39       -10.8975    3.1978   57.2883 H       1  ZINC000980108339    0.0800
     40 H40       -10.9653    4.2616   58.7597 H       1  ZINC000980108339    0.1000
     41 H41        -9.0129    3.2104   55.8664 H       1  ZINC000980108339    0.4000
     42 H42        -5.8403    4.2803   54.3964 H       1  ZINC000980108339    0.1000
     43 H43        -6.8324    2.8124   54.5667 H       1  ZINC000980108339    0.1000
     44 H44        -9.0310    2.5286   53.5271 H       1  ZINC000980108339    0.0900
     45 H45        -9.8185    3.9371   52.6339 H       1  ZINC000980108339    0.1000
     46 H46        -6.9216    4.4222   50.1511 H       1  ZINC000980108339    0.1000
     47 H47        -9.1587    4.2943   48.9613 H       1  ZINC000980108339    0.0900
     48 H48        -9.9467    3.6759   50.5100 H       1  ZINC000980108339    0.0900
     49 H49        -9.2666    5.8064   51.7069 H       1  ZINC000980108339    0.0900
     50 H50        -8.4785    6.4247   50.1583 H       1  ZINC000980108339    0.0900
     51 H51        -8.4564    4.5178   59.7261 H       1  ZINC000980108339    0.1000
     52 H52        -7.3391    3.5632   58.6576 H       1  ZINC000980108339    0.0800
     53 H53       -12.0420   -2.0890   58.6231 H       1  ZINC000980108339    0.4400
@<TRIPOS>BOND
     1     1     2    1
     2     1    31    1
     3     1    32    1
     4     1    33    1
     5     2    29   am
     6     2     3    1
     7     3     4    1
     8     3    34    1
     9     3    35    1
    10     4     5    1
    11     4     6    1
    12     4    28    1
    13     6     7    2
    14     6     8   am
    15     8     9    1
    16     8    36    1
    17     9    10    1
    18     9    37    1
    19     9    38    1
    20    10    11    1
    21    10    27    1
    22    10    12    1
    23    12    13    1
    24    12    39    1
    25    12    40    1
    26    13    14    1
    27    13    15    1
    28    13    27    1
    29    15    16   am
    30    15    41    1
    31    16    17    2
    32    16    18    1
    33    18    19    1
    34    18    42    1
    35    18    43    1
    36    19    20    1
    37    19    22    1
    38    19    21    1
    39    21    22    1
    40    21    44    1
    41    21    45    1
    42    22    23    1
    43    22    24    1
    44    24    26    1
    45    24    25    1
    46    24    46    1
    47    25    26    1
    48    25    47    1
    49    25    48    1
    50    26    49    1
    51    26    50    1
    52    27    51    1
    53    27    52    1
    54    28    29   am
    55    28    53    1
    56    29    30    2
@<TRIPOS>SUBSTRUCTURE
     1 ZINC000980108339        1 TEMP              0 ****  ****    0 ROOT


##########                                Name:    ZINC001143596311
##########                DOCK_Rotatable_Bonds:                   9
##########                         Heavy_Atoms:                  21
##########                    Molecular_Weight:             335.811
##########                DOCK_Rotatable_Bonds:                   9
##########                       Formal_Charge:          0.00999959
##########                     HBond_Acceptors:                   9
##########                        HBond_Donors:                   3
##########                         Heavy_Atoms:                  21
##########                          Grid_Score:          -30.789352
##########                     Grid_vdw_energy:          -28.730335
##########                      Grid_es_energy:           -2.059018
##########           Internal_energy_repulsive:           15.998182

@<TRIPOS>MOLECULE
ZINC001143596311
 39 39 1 0 0
SMALL
USER_CHARGES


@<TRIPOS>ATOM
      1 C1        -15.3433   -3.0039   58.1546 C.3     1  ZINC001143596311    0.0400
      2 O2        -13.9447   -3.1891   58.3825 O.3     1  ZINC001143596311   -0.2600
      3 N3        -13.1039   -2.8400   57.2373 N.3     1  ZINC001143596311   -0.3700
      4 C4        -13.3479   -1.4566   56.8074 C.3     1  ZINC001143596311    0.0000
      5 C5        -11.6830   -3.0534   57.5431 C.3     1  ZINC001143596311    0.0400
      6 C6        -11.3565   -2.4386   58.9055 C.3     1  ZINC001143596311   -0.1300
      7 C7         -9.8544   -2.5559   59.1713 C.3     1  ZINC001143596311    0.1200
      8 N8         -9.5517   -2.0296   60.5046 N.am    1  ZINC001143596311   -0.7200
      9 C9         -9.4468   -0.6997   60.6962 C.2     1  ZINC001143596311    0.5600
     10 O10        -9.6048    0.0632   59.7631 O.2     1  ZINC001143596311   -0.5200
     11 C11        -9.1398   -0.1689   62.0408 C.ar    1  ZINC001143596311   -0.1500
     12 C12        -8.3659   -0.9171   62.9296 C.ar    1  ZINC001143596311   -0.0200
     13 C13        -8.0827   -0.4164   64.1831 C.ar    1  ZINC001143596311   -0.1300
     14 C14        -8.5648    0.8257   64.5608 C.ar    1  ZINC001143596311    0.0700
     15 Cl15       -8.2042    1.4493   66.1403 Cl      1  ZINC001143596311   -0.0200
     16 C16        -9.3333    1.5728   63.6831 C.ar    1  ZINC001143596311   -0.6800
     17 S17        -9.9417    3.1524   64.1725 S.o2    1  ZINC001143596311    2.7000
     18 N18       -10.9002    2.9180   65.5024 N.am    1  ZINC001143596311   -1.2500
     19 O19        -8.8153    3.8965   64.6158 O.2     1  ZINC001143596311   -0.9400
     20 O20       -10.8021    3.5916   63.1302 O.2     1  ZINC001143596311   -0.9500
     21 C21        -9.6179    1.0856   62.4251 C.ar    1  ZINC001143596311    0.0500
     22 H22       -15.5377   -1.9574   57.9199 H       1  ZINC001143596311    0.0400
     23 H23       -15.6612   -3.6286   57.3198 H       1  ZINC001143596311    0.0500
     24 H24       -15.8977   -3.2845   59.0501 H       1  ZINC001143596311    0.0900
     25 H25       -13.1212   -0.7758   57.6279 H       1  ZINC001143596311    0.0400
     26 H26       -12.7100   -1.2233   55.9549 H       1  ZINC001143596311    0.0900
     27 H27       -14.3934   -1.3444   56.5204 H       1  ZINC001143596311    0.0800
     28 H28       -11.4732   -4.1228   57.5674 H       1  ZINC001143596311    0.0500
     29 H29       -11.0710   -2.5806   56.7750 H       1  ZINC001143596311    0.0900
     30 H30       -11.6449   -1.3874   58.9082 H       1  ZINC001143596311    0.0800
     31 H31       -11.9057   -2.9681   59.6841 H       1  ZINC001143596311    0.0800
     32 H32        -9.5566   -3.6031   59.1178 H       1  ZINC001143596311    0.0800
     33 H33        -9.3071   -1.9840   58.4220 H       1  ZINC001143596311    0.0800
     34 H34        -9.4269   -2.6384   61.2494 H       1  ZINC001143596311    0.4000
     35 H35        -7.9900   -1.8861   62.6365 H       1  ZINC001143596311    0.1500
     36 H36        -7.4841   -0.9942   64.8717 H       1  ZINC001143596311    0.1600
     37 H37       -10.5264    2.5244   66.3064 H       1  ZINC001143596311    0.4200
     38 H38       -11.8354    3.1742   65.4776 H       1  ZINC001143596311    0.4200
     39 H39       -10.2172    1.6688   61.7417 H       1  ZINC001143596311    0.1700
@<TRIPOS>BOND
     1     1     2    1
     2     1    22    1
     3     1    23    1
     4     1    24    1
     5     2     3    1
     6     3     4    1
     7     3     5    1
     8     4    25    1
     9     4    26    1
    10     4    27    1
    11     5     6    1
    12     5    28    1
    13     5    29    1
    14     6     7    1
    15     6    30    1
    16     6    31    1
    17     7     8    1
    18     7    32    1
    19     7    33    1
    20     8     9   am
    21     8    34    1
    22     9    10    2
    23     9    11    1
    24    11    21   ar
    25    11    12   ar
    26    12    13   ar
    27    12    35    1
    28    13    14   ar
    29    13    36    1
    30    14    15    1
    31    14    16   ar
    32    16    17    1
    33    16    21   ar
    34    17    18   am
    35    17    19    2
    36    17    20    2
    37    18    37    1
    38    18    38    1
    39    21    39    1
@<TRIPOS>SUBSTRUCTURE
     1 ZINC001143596311        1 TEMP              0 ****  ****    0 ROOT


##########                                Name:    ZINC000479580180
##########                DOCK_Rotatable_Bonds:                   5
##########                         Heavy_Atoms:                  30
##########                    Molecular_Weight:             404.444
##########                DOCK_Rotatable_Bonds:                   5
##########                       Formal_Charge:           0.0299995
##########                     HBond_Acceptors:                   7
##########                        HBond_Donors:                   1
##########                         Heavy_Atoms:                  30
##########                          Grid_Score:          -30.785896
##########                     Grid_vdw_energy:          -29.552034
##########                      Grid_es_energy:           -1.233862
##########           Internal_energy_repulsive:           18.460894

@<TRIPOS>MOLECULE
ZINC000479580180
 51 55 1 0 0
SMALL
USER_CHARGES


@<TRIPOS>ATOM
      1 O1        -14.4261   -1.0062   59.4717 O.2     1  ZINC000479580180   -0.5200
      2 C2        -13.2968   -1.2691   59.8274 C.2     1  ZINC000479580180    0.5200
      3 C3        -12.8274   -2.7009   59.8478 C.3     1  ZINC000479580180   -0.0700
      4 C4        -12.0564   -2.9949   58.5867 C.2     1  ZINC000479580180   -0.1600
      5 C5        -12.5335   -2.9991   57.3349 C.2     1  ZINC000479580180    0.0300
      6 O6        -11.5534   -3.3055   56.4664 O.3     1  ZINC000479580180   -0.1900
      7 C7        -10.3884   -3.5161   57.1111 C.ar    1  ZINC000479580180    0.0800
      8 C8         -9.1088   -3.8512   56.6876 C.ar    1  ZINC000479580180   -0.1400
      9 C9         -8.0962   -4.0006   57.6145 C.ar    1  ZINC000479580180    0.1300
     10 F10        -6.8522   -4.3261   57.2000 F       1  ZINC000479580180   -0.1300
     11 C11        -8.3443   -3.8192   58.9691 C.ar    1  ZINC000479580180   -0.1600
     12 C12        -9.5980   -3.4895   59.4048 C.ar    1  ZINC000479580180   -0.0400
     13 C13       -10.6303   -3.3279   58.4826 C.ar    1  ZINC000479580180   -0.1200
     14 N14       -12.4598   -0.2802   60.1991 N.am    1  ZINC000479580180   -0.6200
     15 C15       -11.0852   -0.5819   60.6210 C.3     1  ZINC000479580180    0.1100
     16 C16       -10.1170    0.2635   59.7877 C.3     1  ZINC000479580180   -0.1300
     17 C17       -10.5016    1.7399   59.9080 C.3     1  ZINC000479580180   -0.0100
     18 C18        -9.5305    2.5778   59.1168 C.2     1  ZINC000479580180    0.3000
     19 N19        -9.6548    2.9111   57.8594 N.2     1  ZINC000479580180   -0.5300
     20 C20        -8.6089    3.6591   57.4831 C.2     1  ZINC000479580180    0.2700
     21 C21        -8.3942    4.2272   56.1290 C.ar    1  ZINC000479580180   -0.0200
     22 C22        -7.2573    4.9870   55.8619 C.ar    1  ZINC000479580180   -0.0800
     23 C23        -7.0624    5.5126   54.6006 C.ar    1  ZINC000479580180   -0.1300
     24 C24        -7.9935    5.2868   53.6030 C.ar    1  ZINC000479580180   -0.1000
     25 C25        -9.1239    4.5332   53.8628 C.ar    1  ZINC000479580180   -0.1200
     26 C26        -9.3260    3.9979   55.1188 C.ar    1  ZINC000479580180   -0.0800
     27 N27        -7.8043    3.8069   58.5126 N.2     1  ZINC000479580180   -0.3000
     28 N28        -8.3900    3.1155   59.5855 N.pl3   1  ZINC000479580180   -0.4800
     29 C29       -11.9163    1.9463   59.3617 C.3     1  ZINC000479580180   -0.1400
     30 C30       -12.9030    1.1206   60.1845 C.3     1  ZINC000479580180    0.1200
     31 H31       -12.1832   -2.8599   60.7128 H       1  ZINC000479580180    0.1100
     32 H32       -13.6894   -3.3651   59.9099 H       1  ZINC000479580180    0.1100
     33 H33       -13.5569   -2.7872   57.0625 H       1  ZINC000479580180    0.2100
     34 H34        -8.9064   -3.9946   55.6364 H       1  ZINC000479580180    0.1500
     35 H35        -7.5424   -3.9394   59.6826 H       1  ZINC000479580180    0.1400
     36 H36        -9.7862   -3.3501   60.4591 H       1  ZINC000479580180    0.1300
     37 H37       -10.9657   -0.3400   61.6771 H       1  ZINC000479580180    0.0800
     38 H38       -10.8777   -1.6399   60.4607 H       1  ZINC000479580180    0.0900
     39 H39        -9.1007    0.1212   60.1553 H       1  ZINC000479580180    0.0900
     40 H40       -10.1727   -0.0431   58.7431 H       1  ZINC000479580180    0.0700
     41 H41       -10.4698    2.0392   60.9556 H       1  ZINC000479580180    0.1200
     42 H42        -6.5301    5.1646   56.6402 H       1  ZINC000479580180    0.1400
     43 H43        -6.1815    6.1017   54.3924 H       1  ZINC000479580180    0.1300
     44 H44        -7.8374    5.7005   52.6176 H       1  ZINC000479580180    0.1300
     45 H45        -9.8480    4.3602   53.0803 H       1  ZINC000479580180    0.1300
     46 H46       -10.2089    3.4095   55.3206 H       1  ZINC000479580180    0.1300
     47 H47        -8.0383    3.0362   60.4860 H       1  ZINC000479580180    0.4400
     48 H48       -12.1806    3.0018   59.4262 H       1  ZINC000479580180    0.0900
     49 H49       -11.9550    1.6240   58.3212 H       1  ZINC000479580180    0.0700
     50 H50       -13.8955    1.1866   59.7386 H       1  ZINC000479580180    0.1000
     51 H51       -12.9333    1.4989   61.2062 H       1  ZINC000479580180    0.0800
@<TRIPOS>BOND
     1     1     2    2
     2     2     3    1
     3     2    14   am
     4     3     4    1
     5     3    31    1
     6     3    32    1
     7     4    13    1
     8     4     5    2
     9     5     6    1
    10     5    33    1
    11     6     7    1
    12     7    13   ar
    13     7     8   ar
    14     8     9   ar
    15     8    34    1
    16     9    10    1
    17     9    11   ar
    18    11    12   ar
    19    11    35    1
    20    12    13   ar
    21    12    36    1
    22    14    30    1
    23    14    15    1
    24    15    16    1
    25    15    37    1
    26    15    38    1
    27    16    17    1
    28    16    39    1
    29    16    40    1
    30    17    18    1
    31    17    29    1
    32    17    41    1
    33    18    28    1
    34    18    19    2
    35    19    20    1
    36    20    21    1
    37    20    27    2
    38    21    26   ar
    39    21    22   ar
    40    22    23   ar
    41    22    42    1
    42    23    24   ar
    43    23    43    1
    44    24    25   ar
    45    24    44    1
    46    25    26   ar
    47    25    45    1
    48    26    46    1
    49    27    28    1
    50    28    47    1
    51    29    30    1
    52    29    48    1
    53    29    49    1
    54    30    50    1
    55    30    51    1
@<TRIPOS>SUBSTRUCTURE
     1 ZINC000479580180        1 TEMP              0 ****  ****    0 ROOT


##########                                Name:    ZINC000581017854
##########                DOCK_Rotatable_Bonds:                   6
##########                         Heavy_Atoms:                  24
##########                    Molecular_Weight:             330.334
##########                DOCK_Rotatable_Bonds:                   6
##########                       Formal_Charge:           0.0099998
##########                     HBond_Acceptors:                   6
##########                        HBond_Donors:                   2
##########                         Heavy_Atoms:                  24
##########                          Grid_Score:          -30.773268
##########                     Grid_vdw_energy:          -29.966003
##########                      Grid_es_energy:           -0.807264
##########           Internal_energy_repulsive:           19.723404

@<TRIPOS>MOLECULE
ZINC000581017854
 40 42 1 0 0
SMALL
USER_CHARGES


@<TRIPOS>ATOM
      1 C1         -8.0239   -3.1041   58.9916 C.3     1  ZINC000581017854   -0.1600
      2 C2         -9.3531   -2.4067   59.2885 C.3     1  ZINC000581017854    0.1500
      3 H3         -9.7153   -1.9154   58.3854 H       1  ZINC000581017854    0.1100
      4 C4        -10.3797   -3.4419   59.7526 C.3     1  ZINC000581017854    0.0500
      5 O5        -11.6795   -2.8483   59.7716 O.3     1  ZINC000581017854   -0.3100
      6 C6        -12.2301   -2.5303   58.5705 C.ar    1  ZINC000581017854    0.1600
      7 C7        -11.5916   -2.8971   57.3949 C.ar    1  ZINC000581017854   -0.2200
      8 C8        -12.1525   -2.5732   56.1742 C.ar    1  ZINC000581017854   -0.0500
      9 C9        -13.3490   -1.8834   56.1228 C.ar    1  ZINC000581017854   -0.1900
     10 C10       -13.9890   -1.5151   57.2946 C.ar    1  ZINC000581017854    0.1400
     11 F11       -15.1586   -0.8408   57.2423 F       1  ZINC000581017854   -0.1300
     12 C12       -13.4341   -1.8434   58.5187 C.ar    1  ZINC000581017854   -0.1900
     13 N13        -9.1559   -1.4081   60.3422 N.am    1  ZINC000581017854   -0.7300
     14 C14        -9.8128   -0.2327   60.2880 C.2     1  ZINC000581017854    0.5900
     15 O15       -10.5687   -0.0002   59.3634 O.2     1  ZINC000581017854   -0.5400
     16 C16        -9.6164    0.7680   61.3456 C.2     1  ZINC000581017854   -0.2200
     17 C17        -9.9037    2.0989   61.2732 C.2     1  ZINC000581017854    0.1100
     18 N18        -9.5871    2.7006   62.4455 N.pl3   1  ZINC000581017854   -0.5700
     19 C19        -9.0766    1.7796   63.3370 C.ar    1  ZINC000581017854    0.1100
     20 C20        -8.6113    1.8773   64.6439 C.ar    1  ZINC000581017854   -0.1600
     21 C21        -8.1492    0.7521   65.2958 C.ar    1  ZINC000581017854    0.1200
     22 F22        -7.6985    0.8515   66.5655 F       1  ZINC000581017854   -0.1400
     23 C23        -8.1441   -0.4820   64.6580 C.ar    1  ZINC000581017854   -0.1700
     24 C24        -8.6014   -0.5968   63.3635 C.ar    1  ZINC000581017854   -0.0300
     25 C25        -9.0757    0.5298   62.6969 C.ar    1  ZINC000581017854   -0.0700
     26 H26        -8.1707   -3.8471   58.2076 H       1  ZINC000581017854    0.0700
     27 H27        -7.2926   -2.3666   58.6610 H       1  ZINC000581017854    0.0700
     28 H28        -7.6618   -3.5954   59.8946 H       1  ZINC000581017854    0.0700
     29 H29       -10.3771   -4.2889   59.0665 H       1  ZINC000581017854    0.0700
     30 H30       -10.1222   -3.7850   60.7546 H       1  ZINC000581017854    0.0800
     31 H31       -10.6563   -3.4356   57.4336 H       1  ZINC000581017854    0.1400
     32 H32       -11.6549   -2.8591   55.2592 H       1  ZINC000581017854    0.1400
     33 H33       -13.7853   -1.6310   55.1676 H       1  ZINC000581017854    0.1400
     34 H34       -13.9328   -1.5567   59.4328 H       1  ZINC000581017854    0.1400
     35 H35        -8.5524   -1.5930   61.0787 H       1  ZINC000581017854    0.4000
     36 H36       -10.3207    2.5985   60.4113 H       1  ZINC000581017854    0.1800
     37 H37        -9.7026    3.6457   62.6314 H       1  ZINC000581017854    0.4200
     38 H38        -8.6112    2.8325   65.1479 H       1  ZINC000581017854    0.1400
     39 H39        -7.7795   -1.3550   65.1790 H       1  ZINC000581017854    0.1400
     40 H40        -8.5961   -1.5572   62.8696 H       1  ZINC000581017854    0.1500
@<TRIPOS>BOND
     1     1     2    1
     2     1    26    1
     3     1    27    1
     4     1    28    1
     5     2     3    1
     6     2     4    1
     7     2    13    1
     8     4     5    1
     9     4    29    1
    10     4    30    1
    11     5     6    1
    12     6    12   ar
    13     6     7   ar
    14     7     8   ar
    15     7    31    1
    16     8     9   ar
    17     8    32    1
    18     9    10   ar
    19     9    33    1
    20    10    11    1
    21    10    12   ar
    22    12    34    1
    23    13    14   am
    24    13    35    1
    25    14    15    2
    26    14    16    1
    27    16    25    1
    28    16    17    2
    29    17    18    1
    30    17    36    1
    31    18    19    1
    32    18    37    1
    33    19    25   ar
    34    19    20   ar
    35    20    21   ar
    36    20    38    1
    37    21    22    1
    38    21    23   ar
    39    23    24   ar
    40    23    39    1
    41    24    25   ar
    42    24    40    1
@<TRIPOS>SUBSTRUCTURE
     1 ZINC000581017854        1 TEMP              0 ****  ****    0 ROOT


##########                                Name:    ZINC001119787528
##########                DOCK_Rotatable_Bonds:                   6
##########                         Heavy_Atoms:                  27
##########                    Molecular_Weight:             362.434
##########                DOCK_Rotatable_Bonds:                   6
##########                       Formal_Charge:          -0.0199998
##########                     HBond_Acceptors:                   7
##########                        HBond_Donors:                   1
##########                         Heavy_Atoms:                  27
##########                          Grid_Score:          -30.759451
##########                     Grid_vdw_energy:          -30.959002
##########                      Grid_es_energy:            0.199550
##########           Internal_energy_repulsive:           14.284425

@<TRIPOS>MOLECULE
ZINC001119787528
 49 52 1 0 0
SMALL
USER_CHARGES


@<TRIPOS>ATOM
      1 C1         -8.5700    1.5311   65.7627 C.3     1  ZINC001119787528   -0.1700
      2 C2         -9.5681    1.4758   64.6045 C.3     1  ZINC001119787528    0.1000
      3 N3         -9.1591    0.4363   63.6566 N.pl3   1  ZINC001119787528   -0.4500
      4 C4         -8.2875   -0.5709   63.8943 C.2     1  ZINC001119787528    0.1800
      5 N5         -8.1748   -1.2942   62.8107 N.2     1  ZINC001119787528   -0.4800
      6 C6         -8.9583   -0.7811   61.8597 C.2     1  ZINC001119787528   -0.0200
      7 C7         -9.5888    0.2979   62.3715 C.2     1  ZINC001119787528   -0.0100
      8 C8        -10.5719    1.1567   61.6202 C.3     1  ZINC001119787528   -0.0600
      9 C9        -10.4027    0.9026   60.1167 C.3     1  ZINC001119787528    0.1400
     10 N10       -10.3031   -0.5456   59.8817 N.am    1  ZINC001119787528   -0.6200
     11 C11       -11.2450   -1.1958   59.1700 C.2     1  ZINC001119787528    0.7200
     12 O12       -11.1481   -2.3934   58.9849 O.2     1  ZINC001119787528   -0.5600
     13 N13       -12.2945   -0.5183   58.6638 N.am    1  ZINC001119787528   -0.6600
     14 C14       -13.2659   -1.1889   57.9298 C.ar    1  ZINC001119787528    0.4200
     15 C15       -13.8243   -2.3739   58.4096 C.ar    1  ZINC001119787528   -0.2500
     16 C16       -14.7871   -3.0028   57.6431 C.ar    1  ZINC001119787528    0.1600
     17 N17       -15.1458   -2.4645   56.4868 N.ar    1  ZINC001119787528   -0.5300
     18 C18       -14.5988   -1.3434   56.0614 C.ar    1  ZINC001119787528    0.3500
     19 C19       -15.0392   -0.7687   54.7397 C.3     1  ZINC001119787528   -0.0100
     20 C20       -13.8630   -0.1189   54.0576 C.ar    1  ZINC001119787528   -0.0800
     21 C21       -13.5963    1.2212   54.2673 C.ar    1  ZINC001119787528   -0.1000
     22 C22       -12.5174    1.8174   53.6417 C.ar    1  ZINC001119787528   -0.1200
     23 C23       -11.7050    1.0734   52.8066 C.ar    1  ZINC001119787528   -0.1200
     24 C24       -11.9712   -0.2669   52.5977 C.ar    1  ZINC001119787528   -0.1200
     25 C25       -13.0475   -0.8641   53.2267 C.ar    1  ZINC001119787528   -0.1000
     26 N26       -13.6816   -0.7084   56.7622 N.ar    1  ZINC001119787528   -0.5500
     27 C27        -9.1515   -1.2720   60.4445 C.3     1  ZINC001119787528    0.2000
     28 H28        -8.8743    2.3045   66.4680 H       1  ZINC001119787528    0.0800
     29 H29        -8.5473    0.5661   66.2692 H       1  ZINC001119787528    0.0600
     30 H30        -7.5773    1.7620   65.3762 H       1  ZINC001119787528    0.0600
     31 H31       -10.5608    1.2449   64.9909 H       1  ZINC001119787528    0.0900
     32 H32        -9.5907    2.4408   64.0981 H       1  ZINC001119787528    0.1000
     33 H33        -7.7698   -0.7481   64.8254 H       1  ZINC001119787528    0.2100
     34 H34       -11.5871    0.8995   61.9223 H       1  ZINC001119787528    0.0800
     35 H35       -10.3793    2.2074   61.8370 H       1  ZINC001119787528    0.0900
     36 H36       -11.2644    1.3002   59.5807 H       1  ZINC001119787528    0.1100
     37 H37        -9.4950    1.3922   59.7642 H       1  ZINC001119787528    0.0800
     38 H38       -12.3717    0.4372   58.8116 H       1  ZINC001119787528    0.4200
     39 H39       -13.5118   -2.7895   59.3561 H       1  ZINC001119787528    0.1800
     40 H40       -15.2413   -3.9222   57.9824 H       1  ZINC001119787528    0.1700
     41 H41       -15.4297   -1.5670   54.1085 H       1  ZINC001119787528    0.1000
     42 H42       -15.8179   -0.0250   54.9083 H       1  ZINC001119787528    0.1000
     43 H43       -14.2311    1.8025   54.9196 H       1  ZINC001119787528    0.1300
     44 H44       -12.3095    2.8645   53.8048 H       1  ZINC001119787528    0.1200
     45 H45       -10.8625    1.5393   52.3172 H       1  ZINC001119787528    0.1200
     46 H46       -11.3366   -0.8481   51.9450 H       1  ZINC001119787528    0.1200
     47 H47       -13.2554   -1.9112   53.0634 H       1  ZINC001119787528    0.1200
     48 H48        -8.2571   -1.0601   59.8586 H       1  ZINC001119787528    0.0900
     49 H49        -9.3519   -2.3433   60.4428 H       1  ZINC001119787528    0.0900
@<TRIPOS>BOND
     1     1     2    1
     2     1    28    1
     3     1    29    1
     4     1    30    1
     5     2     3    1
     6     2    31    1
     7     2    32    1
     8     3     7    1
     9     3     4    1
    10     4     5    2
    11     4    33    1
    12     5     6    1
    13     6    27    1
    14     6     7    2
    15     7     8    1
    16     8     9    1
    17     8    34    1
    18     8    35    1
    19     9    10    1
    20     9    36    1
    21     9    37    1
    22    10    11   am
    23    10    27    1
    24    11    12    2
    25    11    13   am
    26    13    14    1
    27    13    38    1
    28    14    26   ar
    29    14    15   ar
    30    15    16   ar
    31    15    39    1
    32    16    17   ar
    33    16    40    1
    34    17    18   ar
    35    18    19    1
    36    18    26   ar
    37    19    20    1
    38    19    41    1
    39    19    42    1
    40    20    25   ar
    41    20    21   ar
    42    21    22   ar
    43    21    43    1
    44    22    23   ar
    45    22    44    1
    46    23    24   ar
    47    23    45    1
    48    24    25   ar
    49    24    46    1
    50    25    47    1
    51    27    48    1
    52    27    49    1
@<TRIPOS>SUBSTRUCTURE
     1 ZINC001119787528        1 TEMP              0 ****  ****    0 ROOT


##########                                Name:    ZINC001169875900
##########                DOCK_Rotatable_Bonds:                   9
##########                         Heavy_Atoms:                  24
##########                    Molecular_Weight:             329.399
##########                DOCK_Rotatable_Bonds:                   9
##########                       Formal_Charge:          -0.0500002
##########                     HBond_Acceptors:                   6
##########                        HBond_Donors:                   1
##########                         Heavy_Atoms:                  24
##########                          Grid_Score:          -30.751175
##########                     Grid_vdw_energy:          -28.630270
##########                      Grid_es_energy:           -2.120905
##########           Internal_energy_repulsive:           56.757133

@<TRIPOS>MOLECULE
ZINC001169875900
 47 48 1 0 0
SMALL
USER_CHARGES


@<TRIPOS>ATOM
      1 C1        -13.6104    2.9452   64.8046 C.3     1  ZINC001169875900   -0.1500
      2 C2        -12.2581    2.2341   64.7234 C.3     1  ZINC001169875900   -0.1300
      3 C3        -11.1997    3.2090   64.2036 C.3     1  ZINC001169875900    0.0700
      4 O4         -9.9030    2.6268   64.3503 O.3     1  ZINC001169875900   -0.3100
      5 C5         -9.6141    1.5588   63.5631 C.ar    1  ZINC001169875900    0.2700
      6 N6         -9.9722    1.5694   62.2907 N.ar    1  ZINC001169875900   -0.5000
      7 C7         -9.7181    0.5518   61.4898 C.ar    1  ZINC001169875900    0.0600
      8 C8         -9.0548   -0.5715   61.9599 C.ar    1  ZINC001169875900    0.1400
      9 N9         -8.7890   -1.6476   61.1049 N.pl3   1  ZINC001169875900   -0.7400
     10 C10        -9.8936   -2.3548   60.4525 C.3     1  ZINC001169875900    0.1800
     11 C11        -9.4159   -2.9374   59.1472 C.ar    1  ZINC001169875900    0.1000
     12 C12        -8.1213   -3.4217   59.0482 C.ar    1  ZINC001169875900   -0.1200
     13 C13        -7.6859   -3.9567   57.8457 C.ar    1  ZINC001169875900   -0.0800
     14 C14        -8.5687   -3.9878   56.7779 C.ar    1  ZINC001169875900   -0.1000
     15 C15        -9.8562   -3.4830   56.9492 C.ar    1  ZINC001169875900    0.0900
     16 C16       -10.8114   -3.5088   55.8181 C.2     1  ZINC001169875900    0.5200
     17 O17       -10.4577   -3.9260   54.7340 O.2     1  ZINC001169875900   -0.5000
     18 O18       -12.0727   -3.0697   55.9918 O.3     1  ZINC001169875900   -0.3300
     19 C19       -12.3918   -2.4725   57.2762 C.3     1  ZINC001169875900    0.0600
     20 C20       -13.8359   -1.9673   57.2590 C.3     1  ZINC001169875900   -0.1500
     21 N21       -10.2349   -2.9839   58.1195 N.ar    1  ZINC001169875900   -0.4200
     22 C22        -8.6566   -0.6156   63.2949 C.ar    1  ZINC001169875900   -0.1200
     23 C23        -8.9410    0.4706   64.1031 C.ar    1  ZINC001169875900   -0.1000
     24 C24        -8.5309    0.4704   65.5533 C.3     1  ZINC001169875900   -0.1000
     25 H25       -13.8961    3.2969   63.8132 H       1  ZINC001169875900    0.0600
     26 H26       -14.3645    2.2506   65.1749 H       1  ZINC001169875900    0.0600
     27 H27       -13.5342    3.7945   65.4834 H       1  ZINC001169875900    0.0600
     28 H28       -12.3345    1.3847   64.0444 H       1  ZINC001169875900    0.0700
     29 H29       -11.9725    1.8823   65.7147 H       1  ZINC001169875900    0.0700
     30 H30       -11.2483    4.1363   64.7744 H       1  ZINC001169875900    0.0600
     31 H31       -11.3861    3.4202   63.1506 H       1  ZINC001169875900    0.0600
     32 H32       -10.0306    0.5942   60.4568 H       1  ZINC001169875900    0.1500
     33 H33        -7.8735   -1.9249   60.9445 H       1  ZINC001169875900    0.4000
     34 H34       -10.2453   -3.1570   61.1013 H       1  ZINC001169875900    0.0800
     35 H35       -10.7096   -1.6575   60.2620 H       1  ZINC001169875900    0.0800
     36 H36        -7.4579   -3.3824   59.8996 H       1  ZINC001169875900    0.1500
     37 H37        -6.6817   -4.3408   57.7436 H       1  ZINC001169875900    0.1500
     38 H38        -8.2631   -4.3972   55.8263 H       1  ZINC001169875900    0.1500
     39 H39       -12.2773   -3.2188   58.0623 H       1  ZINC001169875900    0.0700
     40 H40       -11.7171   -1.6379   57.4665 H       1  ZINC001169875900    0.0700
     41 H41       -13.9504   -1.2210   56.4729 H       1  ZINC001169875900    0.0700
     42 H42       -14.5106   -2.8019   57.0688 H       1  ZINC001169875900    0.0700
     43 H43       -14.0754   -1.5190   58.2233 H       1  ZINC001169875900    0.0800
     44 H44        -8.1386   -1.4774   63.6892 H       1  ZINC001169875900    0.1400
     45 H45        -7.5317    0.8954   65.6484 H       1  ZINC001169875900    0.0700
     46 H46        -8.5280   -0.5525   65.9298 H       1  ZINC001169875900    0.0700
     47 H47        -9.2365    1.0680   66.1305 H       1  ZINC001169875900    0.0700
@<TRIPOS>BOND
     1     1     2    1
     2     1    25    1
     3     1    26    1
     4     1    27    1
     5     2     3    1
     6     2    28    1
     7     2    29    1
     8     3     4    1
     9     3    30    1
    10     3    31    1
    11     4     5    1
    12     5    23   ar
    13     5     6   ar
    14     6     7   ar
    15     7     8   ar
    16     7    32    1
    17     8     9    1
    18     8    22   ar
    19     9    10    1
    20     9    33    1
    21    10    11    1
    22    10    34    1
    23    10    35    1
    24    11    21   ar
    25    11    12   ar
    26    12    13   ar
    27    12    36    1
    28    13    14   ar
    29    13    37    1
    30    14    15   ar
    31    14    38    1
    32    15    16    1
    33    15    21   ar
    34    16    17    2
    35    16    18    1
    36    18    19    1
    37    19    20    1
    38    19    39    1
    39    19    40    1
    40    20    41    1
    41    20    42    1
    42    20    43    1
    43    22    23   ar
    44    22    44    1
    45    23    24    1
    46    24    45    1
    47    24    46    1
    48    24    47    1
@<TRIPOS>SUBSTRUCTURE
     1 ZINC001169875900        1 TEMP              0 ****  ****    0 ROOT


##########                                Name:    ZINC000504243286
##########                DOCK_Rotatable_Bonds:                   7
##########                         Heavy_Atoms:                  29
##########                    Molecular_Weight:             408.337
##########                DOCK_Rotatable_Bonds:                   7
##########                       Formal_Charge:           0.0299994
##########                     HBond_Acceptors:                  11
##########                        HBond_Donors:                   3
##########                         Heavy_Atoms:                  29
##########                          Grid_Score:          -30.697426
##########                     Grid_vdw_energy:          -26.603815
##########                      Grid_es_energy:           -4.093610
##########           Internal_energy_repulsive:           16.243790

@<TRIPOS>MOLECULE
ZINC000504243286
 44 46 1 0 0
SMALL
USER_CHARGES


@<TRIPOS>ATOM
      1 O1        -13.5460   -0.3281   62.1182 O.2     1  ZINC000504243286   -0.5200
      2 C2        -13.3562    0.2356   61.0611 C.2     1  ZINC000504243286    0.5200
      3 C3        -14.5244    0.6028   60.1827 C.3     1  ZINC000504243286   -0.1600
      4 C4        -15.2668   -0.6677   59.7640 C.3     1  ZINC000504243286    0.1300
      5 N5        -14.4023   -1.4765   58.9010 N.pl3   1  ZINC000504243286   -0.7200
      6 C6        -14.2536   -1.1438   57.5526 C.ar    1  ZINC000504243286    0.3100
      7 C7        -15.0892   -0.1979   56.9729 C.ar    1  ZINC000504243286   -0.1900
      8 C8        -14.9391    0.1291   55.6394 C.ar    1  ZINC000504243286    0.0200
      9 C9        -13.9583   -0.4840   54.8817 C.ar    1  ZINC000504243286   -0.2400
     10 C10       -13.7972   -0.1242   53.4272 C.3     1  ZINC000504243286    0.5200
     11 F11       -13.3080   -1.2305   52.7245 F       1  ZINC000504243286   -0.1700
     12 F12       -15.0371    0.2522   52.8998 F       1  ZINC000504243286   -0.1700
     13 F13       -12.8970    0.9399   53.3070 F       1  ZINC000504243286   -0.1700
     14 C14       -13.1245   -1.4262   55.4559 C.ar    1  ZINC000504243286    0.0400
     15 C15       -13.2657   -1.7540   56.7898 C.ar    1  ZINC000504243286   -0.1200
     16 N16       -12.3730   -2.7625   57.4034 N.pl3   1  ZINC000504243286    0.0400
     17 O17       -11.9823   -2.6144   58.5475 O.2     1  ZINC000504243286   -0.1700
     18 O18       -12.0289   -3.7406   56.7642 O.2     1  ZINC000504243286   -0.1400
     19 N19       -12.1011    0.5387   60.6748 N.am    1  ZINC000504243286   -0.6700
     20 C20       -11.0153    0.1974   61.4914 C.ar    1  ZINC000504243286    0.1200
     21 C21       -10.0800   -0.7319   61.0559 C.ar    1  ZINC000504243286   -0.1000
     22 C22        -9.0098   -1.0696   61.8572 C.ar    1  ZINC000504243286   -0.1200
     23 C23        -8.8590   -0.4810   63.1111 C.ar    1  ZINC000504243286    0.1300
     24 N24        -7.8771   -0.6571   64.0892 N.am    1  ZINC000504243286   -0.6600
     25 C25        -8.0959    0.1069   65.1725 C.2     1  ZINC000504243286    0.5300
     26 O26        -7.4071    0.1571   66.1696 O.2     1  ZINC000504243286   -0.5000
     27 C27        -9.3632    0.8938   64.9149 C.3     1  ZINC000504243286   -0.1200
     28 C28        -9.8001    0.4479   63.5384 C.ar    1  ZINC000504243286   -0.1200
     29 C29       -10.8659    0.7916   62.7393 C.ar    1  ZINC000504243286   -0.0600
     30 H30       -15.2022    1.2550   60.7334 H       1  ZINC000504243286    0.1100
     31 H31       -14.1624    1.1214   59.2949 H       1  ZINC000504243286    0.1100
     32 H32       -15.5337   -1.2418   60.6513 H       1  ZINC000504243286    0.0800
     33 H33       -16.1720   -0.3972   59.2204 H       1  ZINC000504243286    0.0900
     34 H34       -13.9332   -2.2430   59.2659 H       1  ZINC000504243286    0.4100
     35 H35       -15.8556    0.2811   57.5641 H       1  ZINC000504243286    0.1600
     36 H36       -15.5888    0.8643   55.1878 H       1  ZINC000504243286    0.1600
     37 H37       -12.3594   -1.9033   54.8613 H       1  ZINC000504243286    0.1600
     38 H38       -11.9496    0.9932   59.8314 H       1  ZINC000504243286    0.4200
     39 H39       -10.1914   -1.1924   60.0854 H       1  ZINC000504243286    0.1400
     40 H40        -8.2861   -1.7932   61.5119 H       1  ZINC000504243286    0.1300
     41 H41        -7.1240   -1.2615   63.9968 H       1  ZINC000504243286    0.4100
     42 H42       -10.1235    0.6463   65.6556 H       1  ZINC000504243286    0.1300
     43 H43        -9.1562    1.9640   64.9217 H       1  ZINC000504243286    0.1300
     44 H44       -11.5870    1.5188   63.0822 H       1  ZINC000504243286    0.1500
@<TRIPOS>BOND
     1     1     2    2
     2     2     3    1
     3     2    19   am
     4     3     4    1
     5     3    30    1
     6     3    31    1
     7     4     5    1
     8     4    32    1
     9     4    33    1
    10     5     6    1
    11     5    34    1
    12     6    15   ar
    13     6     7   ar
    14     7     8   ar
    15     7    35    1
    16     8     9   ar
    17     8    36    1
    18     9    10    1
    19     9    14   ar
    20    10    11    1
    21    10    12    1
    22    10    13    1
    23    14    15   ar
    24    14    37    1
    25    15    16    1
    26    16    17    2
    27    16    18    2
    28    19    20    1
    29    19    38    1
    30    20    29   ar
    31    20    21   ar
    32    21    22   ar
    33    21    39    1
    34    22    23   ar
    35    22    40    1
    36    23    28   ar
    37    23    24    1
    38    24    25   am
    39    24    41    1
    40    25    26    2
    41    25    27    1
    42    27    28    1
    43    27    42    1
    44    27    43    1
    45    28    29   ar
    46    29    44    1
@<TRIPOS>SUBSTRUCTURE
     1 ZINC000504243286        1 TEMP              0 ****  ****    0 ROOT


##########                                Name:    ZINC000573150059
##########                DOCK_Rotatable_Bonds:                   7
##########                         Heavy_Atoms:                  23
##########                    Molecular_Weight:             378.269
##########                DOCK_Rotatable_Bonds:                   7
##########                       Formal_Charge:        -2.98023e-07
##########                     HBond_Acceptors:                   5
##########                        HBond_Donors:                   2
##########                         Heavy_Atoms:                  23
##########                          Grid_Score:          -30.690977
##########                     Grid_vdw_energy:          -30.141333
##########                      Grid_es_energy:           -0.549644
##########           Internal_energy_repulsive:           16.453787

@<TRIPOS>MOLECULE
ZINC000573150059
 43 44 1 0 0
SMALL
USER_CHARGES


@<TRIPOS>ATOM
      1 C1         -6.4377   -4.5282   56.0809 C.3     1  ZINC000573150059    0.0300
      2 O2         -7.6275   -3.8731   56.5252 O.3     1  ZINC000573150059   -0.3600
      3 C3         -7.9003   -4.0449   57.9173 C.3     1  ZINC000573150059    0.0700
      4 H4         -8.0200   -5.1060   58.1359 H       1  ZINC000573150059    0.0900
      5 C5         -6.7377   -3.4831   58.7381 C.3     1  ZINC000573150059   -0.1700
      6 C6         -9.1678   -3.3123   58.2749 C.2     1  ZINC000573150059    0.5100
      7 O7         -9.9782   -3.0460   57.4126 O.2     1  ZINC000573150059   -0.4900
      8 N8         -9.4009   -2.9530   59.5527 N.am    1  ZINC000573150059   -0.6700
      9 C9        -10.5777   -2.2729   59.8847 C.ar    1  ZINC000573150059    0.1900
     10 C10       -11.8007   -2.7248   59.4054 C.ar    1  ZINC000573150059   -0.2000
     11 C11       -12.9636   -2.0539   59.7327 C.ar    1  ZINC000573150059   -0.0500
     12 C12       -12.9143   -0.9324   60.5375 C.ar    1  ZINC000573150059   -0.2200
     13 C13       -11.6939   -0.4752   61.0207 C.ar    1  ZINC000573150059    0.2400
     14 N14       -11.6448    0.6586   61.8348 N.pl3   1  ZINC000573150059   -0.7300
     15 C15       -10.6922    1.7317   61.5395 C.3     1  ZINC000573150059    0.2000
     16 H16        -9.9273    1.3609   60.8572 H       1  ZINC000573150059    0.1000
     17 C17       -11.4301    2.9042   60.8898 C.3     1  ZINC000573150059   -0.1700
     18 C18       -10.0432    2.1935   62.8188 C.ar    1  ZINC000573150059    0.1400
     19 C19        -9.4700    1.2654   63.6672 C.ar    1  ZINC000573150059   -0.1600
     20 C20        -8.8750    1.7002   64.8416 C.ar    1  ZINC000573150059   -0.0400
     21 C21        -8.8792    3.0591   65.1199 C.ar    1  ZINC000573150059   -0.1500
     22 Br22       -8.0832    3.7146   66.7051 Br      1  ZINC000573150059   -0.0300
     23 C23        -9.4726    3.9286   64.2226 C.ar    1  ZINC000573150059    0.1400
     24 N24       -10.0245    3.4790   63.1129 N.ar    1  ZINC000573150059   -0.4700
     25 C25       -10.5250   -1.1496   60.6977 C.ar    1  ZINC000573150059   -0.1900
     26 H26        -5.5807   -4.1349   56.6277 H       1  ZINC000573150059    0.0500
     27 H27        -6.5237   -5.5996   56.2620 H       1  ZINC000573150059    0.0400
     28 H28        -6.3013   -4.3498   55.0143 H       1  ZINC000573150059    0.0900
     29 H29        -6.6180   -2.4220   58.5195 H       1  ZINC000573150059    0.0700
     30 H30        -6.9458   -3.6141   59.7999 H       1  ZINC000573150059    0.0700
     31 H31        -5.8210   -4.0130   58.4795 H       1  ZINC000573150059    0.0700
     32 H32        -8.7528   -3.1661   60.2424 H       1  ZINC000573150059    0.4100
     33 H33       -11.8427   -3.6015   58.7759 H       1  ZINC000573150059    0.1200
     34 H34       -13.9130   -2.4071   59.3581 H       1  ZINC000573150059    0.1300
     35 H35       -13.8248   -0.4100   60.7912 H       1  ZINC000573150059    0.1200
     36 H36       -12.2414    0.7355   62.5958 H       1  ZINC000573150059    0.4100
     37 H37       -12.1950    3.2750   61.5721 H       1  ZINC000573150059    0.0600
     38 H38       -10.7213    3.7025   60.6701 H       1  ZINC000573150059    0.0700
     39 H39       -11.8995    2.5701   59.9645 H       1  ZINC000573150059    0.0700
     40 H40        -9.4855    0.2146   63.4186 H       1  ZINC000573150059    0.1500
     41 H41        -8.4195    0.9975   65.5237 H       1  ZINC000573150059    0.1500
     42 H42        -9.4806    4.9881   64.4316 H       1  ZINC000573150059    0.1700
     43 H43        -9.5755   -0.7968   61.0721 H       1  ZINC000573150059    0.1400
@<TRIPOS>BOND
     1     1     2    1
     2     1    26    1
     3     1    27    1
     4     1    28    1
     5     2     3    1
     6     3     4    1
     7     3     5    1
     8     3     6    1
     9     5    29    1
    10     5    30    1
    11     5    31    1
    12     6     7    2
    13     6     8   am
    14     8     9    1
    15     8    32    1
    16     9    25   ar
    17     9    10   ar
    18    10    11   ar
    19    10    33    1
    20    11    12   ar
    21    11    34    1
    22    12    13   ar
    23    12    35    1
    24    13    14    1
    25    13    25   ar
    26    14    15    1
    27    14    36    1
    28    15    16    1
    29    15    17    1
    30    15    18    1
    31    17    37    1
    32    17    38    1
    33    17    39    1
    34    18    24   ar
    35    18    19   ar
    36    19    20   ar
    37    19    40    1
    38    20    21   ar
    39    20    41    1
    40    21    22    1
    41    21    23   ar
    42    23    24   ar
    43    23    42    1
    44    25    43    1
@<TRIPOS>SUBSTRUCTURE
     1 ZINC000573150059        1 TEMP              0 ****  ****    0 ROOT


##########                                Name:    ZINC000863208514
##########                DOCK_Rotatable_Bonds:                   6
##########                         Heavy_Atoms:                  19
##########                    Molecular_Weight:             368.657
##########                DOCK_Rotatable_Bonds:                   6
##########                       Formal_Charge:           0.0100005
##########                     HBond_Acceptors:                   7
##########                        HBond_Donors:                   2
##########                         Heavy_Atoms:                  19
##########                          Grid_Score:          -30.681183
##########                     Grid_vdw_energy:          -28.495937
##########                      Grid_es_energy:           -2.185246
##########           Internal_energy_repulsive:           13.909631

@<TRIPOS>MOLECULE
ZINC000863208514
 31 31 1 0 0
SMALL
USER_CHARGES


@<TRIPOS>ATOM
      1 C1         -6.2236   -4.2790   56.0063 C.3     1  ZINC000863208514    0.0900
      2 N2         -7.0649   -3.9682   57.1647 N.am    1  ZINC000863208514   -0.6100
      3 C3         -6.4505   -3.7277   58.4727 C.3     1  ZINC000863208514    0.0700
      4 C4         -8.4041   -3.9038   57.0270 C.2     1  ZINC000863208514    0.5100
      5 O5         -8.9128   -4.1045   55.9445 O.2     1  ZINC000863208514   -0.5400
      6 C6         -9.2693   -3.5823   58.2183 C.3     1  ZINC000863208514    0.1100
      7 N7         -8.8445   -2.3068   58.8004 N.am    1  ZINC000863208514   -0.6600
      8 C8         -9.5844   -1.7271   59.7663 C.2     1  ZINC000863208514    0.5600
      9 S9        -11.0219   -2.4803   60.3115 S.2     1  ZINC000863208514   -0.6000
     10 N10        -9.1926   -0.5545   60.3029 N.am    1  ZINC000863208514   -0.6300
     11 C11        -9.9616    0.0479   61.3066 C.ar    1  ZINC000863208514    0.1200
     12 C12       -11.2593    0.4579   61.0363 C.ar    1  ZINC000863208514   -0.0300
     13 C13       -12.0166    1.0520   62.0291 C.ar    1  ZINC000863208514   -0.0200
     14 Cl14      -13.6405    1.5646   61.6915 Cl      1  ZINC000863208514   -0.0300
     15 C15       -11.4815    1.2380   63.2922 C.ar    1  ZINC000863208514   -0.0600
     16 Br16      -12.5206    2.0509   64.6470 Br      1  ZINC000863208514   -0.0100
     17 C17       -10.1878    0.8299   63.5654 C.ar    1  ZINC000863208514   -0.1100
     18 C18        -9.4277    0.2311   62.5778 C.ar    1  ZINC000863208514    0.1100
     19 F19        -8.1647   -0.1673   62.8447 F       1  ZINC000863208514   -0.1200
     20 H20        -5.1767   -4.2870   56.3093 H       1  ZINC000863208514    0.0800
     21 H21        -6.4953   -5.2583   55.6122 H       1  ZINC000863208514    0.0700
     22 H22        -6.3730   -3.5230   55.2354 H       1  ZINC000863208514    0.0700
     23 H23        -6.2275   -2.6661   58.5796 H       1  ZINC000863208514    0.0700
     24 H24        -7.1391   -4.0353   59.2596 H       1  ZINC000863208514    0.0800
     25 H25        -5.5279   -4.3025   58.5519 H       1  ZINC000863208514    0.0800
     26 H26       -10.3099   -3.5088   57.9023 H       1  ZINC000863208514    0.1200
     27 H27        -9.1706   -4.3723   58.9628 H       1  ZINC000863208514    0.1200
     28 H28        -8.0306   -1.8795   58.4906 H       1  ZINC000863208514    0.4100
     29 H29        -8.3781   -0.1277   59.9939 H       1  ZINC000863208514    0.4200
     30 H30       -11.6775    0.3135   60.0511 H       1  ZINC000863208514    0.1800
     31 H31        -9.7727    0.9763   64.5516 H       1  ZINC000863208514    0.1600
@<TRIPOS>BOND
     1     1     2    1
     2     1    20    1
     3     1    21    1
     4     1    22    1
     5     2     3    1
     6     2     4   am
     7     3    23    1
     8     3    24    1
     9     3    25    1
    10     4     5    2
    11     4     6    1
    12     6     7    1
    13     6    26    1
    14     6    27    1
    15     7     8   am
    16     7    28    1
    17     8     9    2
    18     8    10   am
    19    10    11    1
    20    10    29    1
    21    11    18   ar
    22    11    12   ar
    23    12    13   ar
    24    12    30    1
    25    13    14    1
    26    13    15   ar
    27    15    16    1
    28    15    17   ar
    29    17    18   ar
    30    17    31    1
    31    18    19    1
@<TRIPOS>SUBSTRUCTURE
     1 ZINC000863208514        1 TEMP              0 ****  ****    0 ROOT


##########                                Name:    ZINC000621594459
##########                DOCK_Rotatable_Bonds:                  10
##########                         Heavy_Atoms:                  25
##########                    Molecular_Weight:             389.497
##########                DOCK_Rotatable_Bonds:                  10
##########                       Formal_Charge:         -7.7486e-07
##########                     HBond_Acceptors:                  10
##########                        HBond_Donors:                   3
##########                         Heavy_Atoms:                  25
##########                          Grid_Score:          -30.677546
##########                     Grid_vdw_energy:          -30.558643
##########                      Grid_es_energy:           -0.118903
##########           Internal_energy_repulsive:           13.592008

@<TRIPOS>MOLECULE
ZINC000621594459
 48 49 1 0 0
SMALL
USER_CHARGES


@<TRIPOS>ATOM
      1 C1        -13.2878    0.9855   59.0865 C.3     1  ZINC000621594459   -0.1600
      2 C2        -13.5048   -0.2877   58.2660 C.3     1  ZINC000621594459    0.1300
      3 C3        -13.6628    0.0783   56.7889 C.3     1  ZINC000621594459   -0.1800
      4 N4        -12.3510   -1.1758   58.4285 N.am    1  ZINC000621594459   -1.1100
      5 S5        -12.3144   -2.2662   59.6741 S.o2    1  ZINC000621594459    2.6200
      6 O6        -12.3023   -1.4607   60.8447 O.2     1  ZINC000621594459   -0.9500
      7 O7        -13.3963   -3.1461   59.4015 O.2     1  ZINC000621594459   -0.9400
      8 C8        -10.7294   -3.1260   59.4766 C.3     1  ZINC000621594459   -0.6600
      9 C9         -9.5909   -2.1037   59.4784 C.3     1  ZINC000621594459    0.1300
     10 N10        -9.2763   -1.7258   60.8584 N.am    1  ZINC000621594459   -0.7200
     11 C11        -9.3603   -0.4358   61.2396 C.2     1  ZINC000621594459    0.5600
     12 O12        -9.6985    0.4138   60.4388 O.2     1  ZINC000621594459   -0.5200
     13 C13        -9.0410   -0.0541   62.6318 C.ar    1  ZINC000621594459   -0.1500
     14 C14        -8.3142   -0.9224   63.4474 C.ar    1  ZINC000621594459   -0.0300
     15 C15        -8.0191   -0.5600   64.7457 C.ar    1  ZINC000621594459   -0.1400
     16 C16        -8.4427    0.6610   65.2393 C.ar    1  ZINC000621594459    0.0100
     17 C17        -9.1642    1.5264   64.4360 C.ar    1  ZINC000621594459   -0.6800
     18 S18        -9.6994    3.0788   65.0748 S.o2    1  ZINC000621594459    2.7000
     19 O19        -8.9866    3.2811   66.2874 O.2     1  ZINC000621594459   -0.9400
     20 O20        -9.6612    3.9944   63.9888 O.2     1  ZINC000621594459   -0.9500
     21 N21       -11.2937    2.9141   65.4916 N.am    1  ZINC000621594459   -1.0900
     22 C22       -12.2829    2.5501   64.4742 C.3     1  ZINC000621594459    0.0800
     23 C23       -13.6772    3.1689   64.5912 C.3     1  ZINC000621594459   -0.1800
     24 C24       -12.7212    3.6396   63.4934 C.3     1  ZINC000621594459   -0.1900
     25 C25        -9.4605    1.1788   63.1345 C.ar    1  ZINC000621594459    0.0400
     26 H26       -14.1463    1.6463   58.9656 H       1  ZINC000621594459    0.0700
     27 H27       -13.1753    0.7248   60.1388 H       1  ZINC000621594459    0.0700
     28 H28       -12.3874    1.4924   58.7394 H       1  ZINC000621594459    0.0600
     29 H29       -14.4052   -0.7946   58.6131 H       1  ZINC000621594459    0.0900
     30 H30       -12.7624    0.5852   56.4418 H       1  ZINC000621594459    0.0700
     31 H31       -13.8172   -0.8287   56.2044 H       1  ZINC000621594459    0.0600
     32 H32       -14.5212    0.7391   56.6680 H       1  ZINC000621594459    0.0700
     33 H33       -11.6085   -1.1250   57.8062 H       1  ZINC000621594459    0.4200
     34 H34       -10.5905   -3.8259   60.3005 H       1  ZINC000621594459    0.1400
     35 H35       -10.7268   -3.6708   58.5325 H       1  ZINC000621594459    0.1400
     36 H36        -8.7087   -2.5416   59.0115 H       1  ZINC000621594459    0.0900
     37 H37        -9.8963   -1.2189   58.9199 H       1  ZINC000621594459    0.0900
     38 H38        -9.0076   -2.4039   61.4978 H       1  ZINC000621594459    0.4000
     39 H39        -7.9835   -1.8762   63.0634 H       1  ZINC000621594459    0.1300
     40 H40        -7.4567   -1.2309   65.3779 H       1  ZINC000621594459    0.1400
     41 H41        -8.2095    0.9398   66.2563 H       1  ZINC000621594459    0.1500
     42 H42       -11.5725    3.0586   66.4094 H       1  ZINC000621594459    0.4200
     43 H43       -12.2147    1.5301   64.0958 H       1  ZINC000621594459    0.1400
     44 H44       -14.5268    2.5559   64.2901 H       1  ZINC000621594459    0.1100
     45 H45       -13.8586    3.8468   65.4253 H       1  ZINC000621594459    0.1000
     46 H46       -12.2736    4.6271   63.6052 H       1  ZINC000621594459    0.1000
     47 H47       -12.9417    3.3363   62.4699 H       1  ZINC000621594459    0.1000
     48 H48       -10.0233    1.8552   62.5084 H       1  ZINC000621594459    0.1600
@<TRIPOS>BOND
     1     1     2    1
     2     1    26    1
     3     1    27    1
     4     1    28    1
     5     2     3    1
     6     2     4    1
     7     2    29    1
     8     3    30    1
     9     3    31    1
    10     3    32    1
    11     4     5   am
    12     4    33    1
    13     5     6    2
    14     5     7    2
    15     5     8    1
    16     8     9    1
    17     8    34    1
    18     8    35    1
    19     9    10    1
    20     9    36    1
    21     9    37    1
    22    10    11   am
    23    10    38    1
    24    11    12    2
    25    11    13    1
    26    13    25   ar
    27    13    14   ar
    28    14    15   ar
    29    14    39    1
    30    15    16   ar
    31    15    40    1
    32    16    17   ar
    33    16    41    1
    34    17    18    1
    35    17    25   ar
    36    18    19    2
    37    18    20    2
    38    18    21   am
    39    21    22    1
    40    21    42    1
    41    22    24    1
    42    22    23    1
    43    22    43    1
    44    23    24    1
    45    23    44    1
    46    23    45    1
    47    24    46    1
    48    24    47    1
    49    25    48    1
@<TRIPOS>SUBSTRUCTURE
     1 ZINC000621594459        1 TEMP              0 ****  ****    0 ROOT


##########                                Name:    ZINC000252489163
##########                DOCK_Rotatable_Bonds:                   6
##########                         Heavy_Atoms:                  25
##########                    Molecular_Weight:             379.403
##########                DOCK_Rotatable_Bonds:                   6
##########                       Formal_Charge:          0.00999963
##########                     HBond_Acceptors:                  10
##########                        HBond_Donors:                   2
##########                         Heavy_Atoms:                  25
##########                          Grid_Score:          -30.669470
##########                     Grid_vdw_energy:          -27.210608
##########                      Grid_es_energy:           -3.458862
##########           Internal_energy_repulsive:           11.201967

@<TRIPOS>MOLECULE
ZINC000252489163
 45 46 1 0 0
SMALL
USER_CHARGES


@<TRIPOS>ATOM
      1 C1         -8.5308    0.8686   65.5647 C.3     1  ZINC000252489163   -0.1100
      2 C2         -9.5867    1.3649   64.6108 C.ar    1  ZINC000252489163   -0.0600
      3 C3         -9.8888    0.6371   63.4769 C.ar    1  ZINC000252489163   -0.1300
      4 C4        -10.8624    1.0949   62.5985 C.ar    1  ZINC000252489163    0.1700
      5 N5        -11.1713    0.3593   61.4487 N.am    1  ZINC000252489163   -0.6800
      6 C6        -12.4296   -0.0796   61.2473 C.2     1  ZINC000252489163    0.7100
      7 O7        -13.2964    0.1635   62.0646 O.2     1  ZINC000252489163   -0.5500
      8 N8        -12.7271   -0.7879   60.1399 N.am    1  ZINC000252489163   -0.6200
      9 C9        -14.0941   -1.2732   59.9063 C.3     1  ZINC000252489163    0.1000
     10 C10       -14.0446   -2.7829   59.6514 C.3     1  ZINC000252489163   -0.1400
     11 C11       -13.0711   -3.0710   58.5062 C.3     1  ZINC000252489163   -0.1300
     12 C12       -11.6680   -2.6009   58.8965 C.3     1  ZINC000252489163    0.1400
     13 H13       -11.3525   -3.1130   59.8055 H       1  ZINC000252489163    0.0900
     14 N14       -10.7307   -2.9062   57.8128 N.am    1  ZINC000252489163   -1.1100
     15 S15        -9.3288   -3.7260   58.1369 S.o2    1  ZINC000252489163    2.6100
     16 C16        -8.4502   -2.6698   59.3214 C.3     1  ZINC000252489163   -0.6700
     17 O17        -9.7614   -4.9256   58.7638 O.2     1  ZINC000252489163   -0.9500
     18 O18        -8.6443   -3.7555   56.8919 O.2     1  ZINC000252489163   -0.9500
     19 C19       -11.6919   -1.0842   59.1403 C.3     1  ZINC000252489163    0.1100
     20 C20       -11.5289    2.2836   62.8638 C.ar    1  ZINC000252489163   -0.1000
     21 C21       -11.2220    3.0071   63.9999 C.ar    1  ZINC000252489163   -0.1600
     22 C22       -11.9450    4.2975   64.2886 C.3     1  ZINC000252489163    0.5100
     23 F23       -11.0163    5.2849   64.6345 F       1  ZINC000252489163   -0.1700
     24 F24       -12.6522    4.7005   63.1508 F       1  ZINC000252489163   -0.1800
     25 F25       -12.8375    4.1050   65.3486 F       1  ZINC000252489163   -0.1800
     26 C26       -10.2561    2.5459   64.8750 C.ar    1  ZINC000252489163   -0.0900
     27 H27        -8.9920    0.2268   66.3153 H       1  ZINC000252489163    0.0800
     28 H28        -7.7806    0.3018   65.0133 H       1  ZINC000252489163    0.0700
     29 H29        -8.0560    1.7183   66.0553 H       1  ZINC000252489163    0.0700
     30 H30        -9.3684   -0.2871   63.2730 H       1  ZINC000252489163    0.1300
     31 H31       -10.4798    0.1654   60.7967 H       1  ZINC000252489163    0.4100
     32 H32       -14.7085   -1.0707   60.7837 H       1  ZINC000252489163    0.0800
     33 H33       -14.5171   -0.7694   59.0372 H       1  ZINC000252489163    0.0800
     34 H34       -13.7067   -3.2933   60.5532 H       1  ZINC000252489163    0.0700
     35 H35       -15.0388   -3.1392   59.3819 H       1  ZINC000252489163    0.0900
     36 H36       -13.0526   -4.1424   58.3063 H       1  ZINC000252489163    0.0800
     37 H37       -13.3959   -2.5404   57.6112 H       1  ZINC000252489163    0.0800
     38 H38       -10.9314   -2.6282   56.9054 H       1  ZINC000252489163    0.4200
     39 H39        -9.0612   -2.5393   60.2146 H       1  ZINC000252489163    0.1300
     40 H40        -7.5042   -3.1377   59.5934 H       1  ZINC000252489163    0.1300
     41 H41        -8.2575   -1.6975   58.8680 H       1  ZINC000252489163    0.1300
     42 H42       -11.9184   -0.5678   58.2076 H       1  ZINC000252489163    0.0800
     43 H43       -10.7210   -0.7589   59.5140 H       1  ZINC000252489163    0.1100
     44 H44       -12.2862    2.6425   62.1825 H       1  ZINC000252489163    0.1800
     45 H45       -10.0183    3.1132   65.7627 H       1  ZINC000252489163    0.1300
@<TRIPOS>BOND
     1     1     2    1
     2     1    27    1
     3     1    28    1
     4     1    29    1
     5     2    26   ar
     6     2     3   ar
     7     3     4   ar
     8     3    30    1
     9     4     5    1
    10     4    20   ar
    11     5     6   am
    12     5    31    1
    13     6     7    2
    14     6     8   am
    15     8    19    1
    16     8     9    1
    17     9    10    1
    18     9    32    1
    19     9    33    1
    20    10    11    1
    21    10    34    1
    22    10    35    1
    23    11    12    1
    24    11    36    1
    25    11    37    1
    26    12    13    1
    27    12    14    1
    28    12    19    1
    29    14    15   am
    30    14    38    1
    31    15    16    1
    32    15    17    2
    33    15    18    2
    34    16    39    1
    35    16    40    1
    36    16    41    1
    37    19    42    1
    38    19    43    1
    39    20    21   ar
    40    20    44    1
    41    21    22    1
    42    21    26   ar
    43    22    23    1
    44    22    24    1
    45    22    25    1
    46    26    45    1
@<TRIPOS>SUBSTRUCTURE
     1 ZINC000252489163        1 TEMP              0 ****  ****    0 ROOT


##########                                Name:    ZINC000541000201
##########                DOCK_Rotatable_Bonds:                  10
##########                         Heavy_Atoms:                  30
##########                    Molecular_Weight:             420.413
##########                DOCK_Rotatable_Bonds:                  10
##########                       Formal_Charge:               -0.03
##########                     HBond_Acceptors:                   9
##########                        HBond_Donors:                   1
##########                         Heavy_Atoms:                  30
##########                          Grid_Score:          -30.630188
##########                     Grid_vdw_energy:          -29.742964
##########                      Grid_es_energy:           -0.887224
##########           Internal_energy_repulsive:          164.682465

@<TRIPOS>MOLECULE
ZINC000541000201
 52 54 1 0 0
SMALL
USER_CHARGES


@<TRIPOS>ATOM
      1 C1        -14.2140   -1.5631   58.3584 C.3     1  ZINC000541000201    0.0400
      2 O2        -12.8700   -1.1219   58.6861 O.3     1  ZINC000541000201   -0.3500
      3 C3        -12.1595   -1.8992   59.5186 C.2     1  ZINC000541000201    0.4500
      4 O4        -12.6677   -2.8775   60.0130 O.2     1  ZINC000541000201   -0.4900
      5 C5        -10.7281   -1.5515   59.8364 C.3     1  ZINC000541000201    0.2100
      6 H6        -10.5483   -1.6912   60.9024 H       1  ZINC000541000201    0.1400
      7 N7        -10.4736   -0.1541   59.4774 N.am    1  ZINC000541000201   -0.7100
      8 C8        -10.7192    0.8262   60.3691 C.2     1  ZINC000541000201    0.5800
      9 O9        -11.1503    0.5508   61.4720 O.2     1  ZINC000541000201   -0.5300
     10 C10       -10.4645    2.2343   60.0067 C.ar    1  ZINC000541000201   -0.2300
     11 C11        -9.9246    2.5604   58.7541 C.ar    1  ZINC000541000201    0.0200
     12 C12        -9.7044    3.8910   58.4616 C.ar    1  ZINC000541000201   -0.2000
     13 C13       -10.0223    4.8576   59.4103 C.ar    1  ZINC000541000201    0.3500
     14 O14        -9.8083    6.1656   59.1286 O.3     1  ZINC000541000201   -0.2900
     15 C15        -9.2570    6.4712   57.8461 C.3     1  ZINC000541000201    0.0800
     16 C16        -7.9385    5.6898   57.6227 C.3     1  ZINC000541000201   -0.1400
     17 C17        -7.8269    5.6420   56.0785 C.3     1  ZINC000541000201   -0.1200
     18 C18        -9.2799    5.4417   55.6003 C.3     1  ZINC000541000201   -0.1200
     19 C19       -10.1891    5.9690   56.7242 C.3     1  ZINC000541000201   -0.1200
     20 N20       -10.5316    4.5178   60.5847 N.ar    1  ZINC000541000201   -0.5400
     21 C21       -10.7628    3.2615   60.9032 C.ar    1  ZINC000541000201    0.1800
     22 C22        -9.8068   -2.4480   59.0500 C.ar    1  ZINC000541000201   -0.1300
     23 C23        -8.5508   -2.7499   59.5430 C.ar    1  ZINC000541000201   -0.0700
     24 C24        -7.7044   -3.5714   58.8239 C.ar    1  ZINC000541000201   -0.1300
     25 C25        -8.1157   -4.0940   57.6064 C.ar    1  ZINC000541000201    0.1200
     26 O26        -7.2850   -4.9027   56.8974 O.3     1  ZINC000541000201   -0.3200
     27 C27        -6.4344   -4.2757   55.9354 C.3     1  ZINC000541000201    0.4100
     28 F28        -7.1863   -3.3916   55.1541 F       1  ZINC000541000201   -0.2000
     29 F29        -5.4235   -3.5698   56.5965 F       1  ZINC000541000201   -0.2000
     30 C30        -9.3766   -3.7899   57.1142 C.ar    1  ZINC000541000201   -0.1900
     31 C31       -10.2211   -2.9717   57.8393 C.ar    1  ZINC000541000201   -0.0500
     32 H32       -14.6761   -0.8465   57.6793 H       1  ZINC000541000201    0.1000
     33 H33       -14.1686   -2.5409   57.8789 H       1  ZINC000541000201    0.0600
     34 H34       -14.8061   -1.6329   59.2708 H       1  ZINC000541000201    0.0600
     35 H35       -10.1286    0.0655   58.5978 H       1  ZINC000541000201    0.4100
     36 H36        -9.6866    1.7893   58.0363 H       1  ZINC000541000201    0.1600
     37 H37        -9.2895    4.1787   57.5068 H       1  ZINC000541000201    0.1500
     38 H38        -9.0881    7.5437   57.7502 H       1  ZINC000541000201    0.1000
     39 H39        -7.0936    6.2262   58.0546 H       1  ZINC000541000201    0.0700
     40 H40        -8.0108    4.6838   58.0361 H       1  ZINC000541000201    0.0800
     41 H41        -7.4252    6.5802   55.6959 H       1  ZINC000541000201    0.0700
     42 H42        -7.2038    4.8037   55.7668 H       1  ZINC000541000201    0.0700
     43 H43        -9.4527    6.0067   54.6843 H       1  ZINC000541000201    0.0700
     44 H44        -9.4740    4.3830   55.4288 H       1  ZINC000541000201    0.0700
     45 H45       -10.8245    5.1662   57.0980 H       1  ZINC000541000201    0.0800
     46 H46       -10.8032    6.7898   56.3536 H       1  ZINC000541000201    0.0700
     47 H47       -11.1794    3.0230   61.8706 H       1  ZINC000541000201    0.1600
     48 H48        -8.2311   -2.3429   60.4909 H       1  ZINC000541000201    0.1300
     49 H49        -6.7232   -3.8064   59.2092 H       1  ZINC000541000201    0.1400
     50 H50        -5.9875   -5.0362   55.2950 H       1  ZINC000541000201    0.1900
     51 H51        -9.6989   -4.1952   56.1664 H       1  ZINC000541000201    0.1400
     52 H52       -11.2029   -2.7350   57.4567 H       1  ZINC000541000201    0.1400
@<TRIPOS>BOND
     1     1     2    1
     2     1    32    1
     3     1    33    1
     4     1    34    1
     5     2     3    1
     6     3     4    2
     7     3     5    1
     8     5     6    1
     9     5     7    1
    10     5    22    1
    11     7     8   am
    12     7    35    1
    13     8     9    2
    14     8    10    1
    15    10    21   ar
    16    10    11   ar
    17    11    12   ar
    18    11    36    1
    19    12    13   ar
    20    12    37    1
    21    13    14    1
    22    13    20   ar
    23    14    15    1
    24    15    19    1
    25    15    16    1
    26    15    38    1
    27    16    17    1
    28    16    39    1
    29    16    40    1
    30    17    18    1
    31    17    41    1
    32    17    42    1
    33    18    19    1
    34    18    43    1
    35    18    44    1
    36    19    45    1
    37    19    46    1
    38    20    21   ar
    39    21    47    1
    40    22    31   ar
    41    22    23   ar
    42    23    24   ar
    43    23    48    1
    44    24    25   ar
    45    24    49    1
    46    25    26    1
    47    25    30   ar
    48    26    27    1
    49    27    28    1
    50    27    29    1
    51    27    50    1
    52    30    31   ar
    53    30    51    1
    54    31    52    1
@<TRIPOS>SUBSTRUCTURE
     1 ZINC000541000201        1 TEMP              0 ****  ****    0 ROOT


##########                                Name:    ZINC000051488227
##########                DOCK_Rotatable_Bonds:                   8
##########                         Heavy_Atoms:                  30
##########                    Molecular_Weight:             403.478
##########                DOCK_Rotatable_Bonds:                   8
##########                       Formal_Charge:           0.0199996
##########                     HBond_Acceptors:                   5
##########                        HBond_Donors:                   0
##########                         Heavy_Atoms:                  30
##########                          Grid_Score:          -30.585920
##########                     Grid_vdw_energy:          -29.368629
##########                      Grid_es_energy:           -1.217291
##########           Internal_energy_repulsive:           32.291367

@<TRIPOS>MOLECULE
ZINC000051488227
 55 58 1 0 0
SMALL
USER_CHARGES


@<TRIPOS>ATOM
      1 O1         -9.3726    1.4944   60.2758 O.2     1  ZINC000051488227   -0.5000
      2 C2        -10.2076    1.1214   59.4860 C.2     1  ZINC000051488227    0.4800
      3 O3        -10.3846    1.7853   58.3329 O.3     1  ZINC000051488227   -0.3400
      4 C4        -10.3659    3.2357   58.3977 C.3     1  ZINC000051488227    0.1100
      5 C5         -9.1556    3.7556   57.6654 C.ar    1  ZINC000051488227   -0.1400
      6 C6         -7.8985    3.6163   58.2239 C.ar    1  ZINC000051488227   -0.0500
      7 C7         -6.7875    4.0921   57.5548 C.ar    1  ZINC000051488227   -0.1500
      8 C8         -6.9340    4.7097   56.3211 C.ar    1  ZINC000051488227    0.1500
      9 O9         -5.8426    5.1782   55.6606 O.3     1  ZINC000051488227   -0.3100
     10 C10        -6.0799    5.9600   54.4882 C.3     1  ZINC000051488227    0.1100
     11 C11        -6.4157    5.0485   53.3361 C.ar    1  ZINC000051488227    0.1200
     12 C12        -5.8352    3.7967   53.2641 C.ar    1  ZINC000051488227   -0.1500
     13 C13        -6.1513    2.9654   52.2000 C.ar    1  ZINC000051488227   -0.0700
     14 C14        -7.0434    3.4270   51.2446 C.ar    1  ZINC000051488227   -0.1700
     15 C15        -7.5843    4.6915   51.3832 C.ar    1  ZINC000051488227    0.1100
     16 N16        -7.2645    5.4528   52.4113 N.ar    1  ZINC000051488227   -0.4800
     17 C17        -8.1965    4.8478   55.7627 C.ar    1  ZINC000051488227   -0.2100
     18 C18        -9.3037    4.3661   56.4338 C.ar    1  ZINC000051488227   -0.0500
     19 C19       -11.0457   -0.0928   59.7929 C.3     1  ZINC000051488227    0.0000
     20 C20       -10.3423   -1.3295   59.2960 C.ar    1  ZINC000051488227   -0.0900
     21 C21       -10.9307   -2.1152   58.3227 C.ar    1  ZINC000051488227   -0.1100
     22 C22       -10.2855   -3.2496   57.8668 C.ar    1  ZINC000051488227   -0.1200
     23 C23        -9.0518   -3.5980   58.3839 C.ar    1  ZINC000051488227   -0.1100
     24 C24        -8.4631   -2.8118   59.3567 C.ar    1  ZINC000051488227   -0.1200
     25 C25        -9.1062   -1.6750   59.8094 C.ar    1  ZINC000051488227   -0.1000
     26 C26       -11.2621   -0.1971   61.3056 C.3     1  ZINC000051488227   -0.1400
     27 C27       -12.0452    1.0272   61.7870 C.3     1  ZINC000051488227    0.0600
     28 O28       -13.2859    1.1046   61.0822 O.3     1  ZINC000051488227   -0.3800
     29 C29       -13.1453    1.2510   59.6676 C.3     1  ZINC000051488227    0.0500
     30 C30       -12.4064    0.0356   59.1012 C.3     1  ZINC000051488227   -0.1400
     31 H31       -11.2691    3.6319   57.9338 H       1  ZINC000051488227    0.0800
     32 H32       -10.3237    3.5523   59.4399 H       1  ZINC000051488227    0.0800
     33 H33        -7.7850    3.1354   59.1843 H       1  ZINC000051488227    0.1300
     34 H34        -5.8059    3.9836   57.9917 H       1  ZINC000051488227    0.1400
     35 H35        -6.9122    6.6406   54.6677 H       1  ZINC000051488227    0.0900
     36 H36        -5.1856    6.5350   54.2479 H       1  ZINC000051488227    0.0900
     37 H37        -5.1436    3.4699   54.0265 H       1  ZINC000051488227    0.1400
     38 H38        -5.7127    1.9820   52.1175 H       1  ZINC000051488227    0.1400
     39 H39        -7.3121    2.8067   50.4023 H       1  ZINC000051488227    0.1400
     40 H40        -8.2798    5.0587   50.6430 H       1  ZINC000051488227    0.1600
     41 H41        -8.3131    5.3286   54.8027 H       1  ZINC000051488227    0.1300
     42 H42       -10.2867    4.4730   55.9993 H       1  ZINC000051488227    0.1300
     43 H43       -11.8945   -1.8430   57.9186 H       1  ZINC000051488227    0.1300
     44 H44       -10.7454   -3.8639   57.1069 H       1  ZINC000051488227    0.1300
     45 H45        -8.5480   -4.4847   58.0283 H       1  ZINC000051488227    0.1200
     46 H46        -7.4993   -3.0841   59.7609 H       1  ZINC000051488227    0.1200
     47 H47        -8.6462   -1.0608   60.5693 H       1  ZINC000051488227    0.1300
     48 H48       -11.8261   -1.1021   61.5315 H       1  ZINC000051488227    0.0900
     49 H49       -10.2965   -0.2332   61.8102 H       1  ZINC000051488227    0.0900
     50 H50       -12.2393    0.9375   62.8557 H       1  ZINC000051488227    0.1000
     51 H51       -11.4627    1.9288   61.5975 H       1  ZINC000051488227    0.0500
     52 H52       -14.1318    1.3224   59.2097 H       1  ZINC000051488227    0.1000
     53 H53       -12.5772    2.1555   59.4504 H       1  ZINC000051488227    0.0700
     54 H54       -12.2591    0.1659   58.0291 H       1  ZINC000051488227    0.0900
     55 H55       -12.9935   -0.8646   59.2825 H       1  ZINC000051488227    0.0900
@<TRIPOS>BOND
     1     1     2    2
     2     2     3    1
     3     2    19    1
     4     3     4    1
     5     4     5    1
     6     4    31    1
     7     4    32    1
     8     5    18   ar
     9     5     6   ar
    10     6     7   ar
    11     6    33    1
    12     7     8   ar
    13     7    34    1
    14     8     9    1
    15     8    17   ar
    16     9    10    1
    17    10    11    1
    18    10    35    1
    19    10    36    1
    20    11    16   ar
    21    11    12   ar
    22    12    13   ar
    23    12    37    1
    24    13    14   ar
    25    13    38    1
    26    14    15   ar
    27    14    39    1
    28    15    16   ar
    29    15    40    1
    30    17    18   ar
    31    17    41    1
    32    18    42    1
    33    19    30    1
    34    19    20    1
    35    19    26    1
    36    20    25   ar
    37    20    21   ar
    38    21    22   ar
    39    21    43    1
    40    22    23   ar
    41    22    44    1
    42    23    24   ar
    43    23    45    1
    44    24    25   ar
    45    24    46    1
    46    25    47    1
    47    26    27    1
    48    26    48    1
    49    26    49    1
    50    27    28    1
    51    27    50    1
    52    27    51    1
    53    28    29    1
    54    29    30    1
    55    29    52    1
    56    29    53    1
    57    30    54    1
    58    30    55    1
@<TRIPOS>SUBSTRUCTURE
     1 ZINC000051488227        1 TEMP              0 ****  ****    0 ROOT


##########                                Name:    ZINC000045927156
##########                DOCK_Rotatable_Bonds:                   7
##########                         Heavy_Atoms:                  30
##########                    Molecular_Weight:             418.522
##########                DOCK_Rotatable_Bonds:                   7
##########                       Formal_Charge:           0.0200001
##########                     HBond_Acceptors:                   8
##########                        HBond_Donors:                   1
##########                         Heavy_Atoms:                  30
##########                          Grid_Score:          -30.584019
##########                     Grid_vdw_energy:          -29.251202
##########                      Grid_es_energy:           -1.332817
##########           Internal_energy_repulsive:           18.177372

@<TRIPOS>MOLECULE
ZINC000045927156
 52 56 1 0 0
SMALL
USER_CHARGES


@<TRIPOS>ATOM
      1 O1        -12.8487   -0.0583   57.3812 O.2     1  ZINC000045927156   -0.5800
      2 C2        -13.7908   -0.4394   58.0488 C.2     1  ZINC000045927156    0.7300
      3 N3        -14.4449    0.4271   58.8475 N.am    1  ZINC000045927156   -0.7400
      4 C4        -14.0171    1.8266   58.9158 C.3     1  ZINC000045927156    0.1700
      5 C5        -14.3284    2.3808   60.2822 C.ar    1  ZINC000045927156   -0.0700
      6 C6        -15.5489    2.9834   60.5219 C.ar    1  ZINC000045927156   -0.1000
      7 C7        -15.8345    3.4919   61.7753 C.ar    1  ZINC000045927156   -0.1100
      8 C8        -14.8996    3.3973   62.7889 C.ar    1  ZINC000045927156   -0.1100
      9 C9        -13.6790    2.7938   62.5494 C.ar    1  ZINC000045927156   -0.1000
     10 C10       -13.3952    2.2816   61.2975 C.ar    1  ZINC000045927156   -0.1000
     11 C11       -12.0647    1.6236   61.0364 C.3     1  ZINC000045927156    0.1700
     12 N12       -11.0434    2.2301   61.8940 N.pl3   1  ZINC000045927156   -0.3800
     13 C13       -10.2762    3.2950   61.6034 C.2     1  ZINC000045927156    0.2500
     14 N14        -9.4934    3.5227   62.6267 N.2     1  ZINC000045927156   -0.5400
     15 C15        -9.7307    2.6281   63.5852 C.2     1  ZINC000045927156    0.2000
     16 N16       -10.6758    1.8184   63.1854 N.2     1  ZINC000045927156   -0.3100
     17 N17       -14.1843   -1.7268   57.9860 N.am    1  ZINC000045927156   -0.6200
     18 C18       -15.3081   -2.3193   58.7341 C.3     1  ZINC000045927156    0.1000
     19 C19       -15.7343   -3.5524   57.8989 C.3     1  ZINC000045927156   -0.1300
     20 C20       -14.3640   -4.0726   57.3900 C.3     1  ZINC000045927156   -0.1200
     21 C21       -13.5682   -2.7716   57.1551 C.3     1  ZINC000045927156    0.2300
     22 H22       -13.6171   -2.4921   56.1027 H       1  ZINC000045927156    0.1000
     23 C23       -12.1318   -2.9679   57.5668 C.2     1  ZINC000045927156    0.0900
     24 N24       -11.2082   -3.3781   56.7826 N.2     1  ZINC000045927156   -0.4500
     25 C25        -9.9661   -3.5071   57.2869 C.ar    1  ZINC000045927156    0.0800
     26 C26        -8.7788   -3.9316   56.6577 C.ar    1  ZINC000045927156   -0.0700
     27 C27        -7.6113   -3.9924   57.3568 C.ar    1  ZINC000045927156   -0.1100
     28 C28        -7.5674   -3.6385   58.6977 C.ar    1  ZINC000045927156   -0.1000
     29 C29        -8.7120   -3.2199   59.3385 C.ar    1  ZINC000045927156   -0.0700
     30 C30        -9.9150   -3.1515   58.6395 C.ar    1  ZINC000045927156   -0.1800
     31 S31       -11.5327   -2.6639   59.1354 S.3     1  ZINC000045927156    0.1200
     32 H32       -15.1991    0.1240   59.3770 H       1  ZINC000045927156    0.3900
     33 H33       -12.9440    1.8876   58.7347 H       1  ZINC000045927156    0.1000
     34 H34       -14.5467    2.4057   58.1595 H       1  ZINC000045927156    0.0700
     35 H35       -16.2795    3.0573   59.7298 H       1  ZINC000045927156    0.1300
     36 H36       -16.7879    3.9634   61.9625 H       1  ZINC000045927156    0.1300
     37 H37       -15.1224    3.7952   63.7679 H       1  ZINC000045927156    0.1300
     38 H38       -12.9483    2.7201   63.3413 H       1  ZINC000045927156    0.1300
     39 H39       -12.1371    0.5583   61.2554 H       1  ZINC000045927156    0.1100
     40 H40       -11.7900    1.7619   59.9907 H       1  ZINC000045927156    0.1000
     41 H41       -10.3011    3.8631   60.6853 H       1  ZINC000045927156    0.2200
     42 H42        -9.2271    2.5822   64.5395 H       1  ZINC000045927156    0.2200
     43 H43       -14.9818   -2.6282   59.7271 H       1  ZINC000045927156    0.0700
     44 H44       -16.1312   -1.6085   58.8082 H       1  ZINC000045927156    0.0800
     45 H45       -16.2271   -4.2966   58.5244 H       1  ZINC000045927156    0.0900
     46 H46       -16.3741   -3.2584   57.0667 H       1  ZINC000045927156    0.0800
     47 H47       -13.8821   -4.6927   58.1459 H       1  ZINC000045927156    0.0900
     48 H48       -14.4829   -4.6231   56.4568 H       1  ZINC000045927156    0.0900
     49 H49        -8.7946   -4.2109   55.6145 H       1  ZINC000045927156    0.1300
     50 H50        -6.7092   -4.3203   56.8617 H       1  ZINC000045927156    0.1400
     51 H51        -6.6346   -3.6917   59.2394 H       1  ZINC000045927156    0.1400
     52 H52        -8.6772   -2.9453   60.3824 H       1  ZINC000045927156    0.1300
@<TRIPOS>BOND
     1     1     2    2
     2     2     3   am
     3     2    17   am
     4     3     4    1
     5     3    32    1
     6     4     5    1
     7     4    33    1
     8     4    34    1
     9     5    10   ar
    10     5     6   ar
    11     6     7   ar
    12     6    35    1
    13     7     8   ar
    14     7    36    1
    15     8     9   ar
    16     8    37    1
    17     9    10   ar
    18     9    38    1
    19    10    11    1
    20    11    12    1
    21    11    39    1
    22    11    40    1
    23    12    16    1
    24    12    13    1
    25    13    14    2
    26    13    41    1
    27    14    15    1
    28    15    16    2
    29    15    42    1
    30    17    21    1
    31    17    18    1
    32    18    19    1
    33    18    43    1
    34    18    44    1
    35    19    20    1
    36    19    45    1
    37    19    46    1
    38    20    21    1
    39    20    47    1
    40    20    48    1
    41    21    22    1
    42    21    23    1
    43    23    31    1
    44    23    24    2
    45    24    25    1
    46    25    30   ar
    47    25    26   ar
    48    26    27   ar
    49    26    49    1
    50    27    28   ar
    51    27    50    1
    52    28    29   ar
    53    28    51    1
    54    29    30   ar
    55    29    52    1
    56    30    31    1
@<TRIPOS>SUBSTRUCTURE
     1 ZINC000045927156        1 TEMP              0 ****  ****    0 ROOT


##########                                Name:    ZINC000464752079
##########                DOCK_Rotatable_Bonds:                   7
##########                         Heavy_Atoms:                  29
##########                    Molecular_Weight:             404.413
##########                DOCK_Rotatable_Bonds:                   7
##########                       Formal_Charge:         7.45058e-08
##########                     HBond_Acceptors:                   8
##########                        HBond_Donors:                   1
##########                         Heavy_Atoms:                  29
##########                          Grid_Score:          -30.557800
##########                     Grid_vdw_energy:          -30.170904
##########                      Grid_es_energy:           -0.386896
##########           Internal_energy_repulsive:           18.681137

@<TRIPOS>MOLECULE
ZINC000464752079
 51 54 1 0 0
SMALL
USER_CHARGES


@<TRIPOS>ATOM
      1 C1         -8.4941    5.4773   65.6672 C.3     1  ZINC000464752079   -0.1200
      2 C2         -9.8246    4.7694   65.6559 C.ar    1  ZINC000464752079   -0.0800
      3 C3        -10.9824    5.4700   65.9365 C.ar    1  ZINC000464752079   -0.1200
      4 C4        -12.2030    4.8206   65.9261 C.ar    1  ZINC000464752079   -0.1200
      5 C5        -12.2653    3.4709   65.6350 C.ar    1  ZINC000464752079   -0.1300
      6 C6        -11.1071    2.7703   65.3535 C.ar    1  ZINC000464752079   -0.0900
      7 C7         -9.8874    3.4205   65.3595 C.ar    1  ZINC000464752079   -0.0800
      8 C8         -8.6250    2.6568   65.0527 C.3     1  ZINC000464752079    0.2000
      9 H9         -7.9014    3.3151   64.5719 H       1  ZINC000464752079    0.0900
     10 C10        -8.0285    2.0836   66.3555 C.3     1  ZINC000464752079   -0.1200
     11 C11        -7.5067    0.6903   65.9152 C.3     1  ZINC000464752079   -0.1300
     12 C12        -8.5775    0.2710   64.8772 C.3     1  ZINC000464752079    0.1000
     13 N13        -8.9299    1.5202   64.1713 N.am    1  ZINC000464752079   -0.6300
     14 C14        -9.4470    1.6016   62.9294 C.2     1  ZINC000464752079    0.7200
     15 O15        -9.6985    2.6883   62.4456 O.2     1  ZINC000464752079   -0.5700
     16 N16        -9.6853    0.4784   62.2237 N.am    1  ZINC000464752079   -0.7400
     17 C17       -10.2457    0.5669   60.8731 C.3     1  ZINC000464752079    0.1900
     18 C18       -10.1415   -0.7759   60.1969 C.ar    1  ZINC000464752079   -0.1200
     19 C19        -8.9255   -1.2059   59.7001 C.ar    1  ZINC000464752079   -0.0500
     20 C20        -8.8264   -2.4395   59.0776 C.ar    1  ZINC000464752079    0.0100
     21 C21        -9.9540   -3.2471   58.9529 C.ar    1  ZINC000464752079    0.0800
     22 C22       -11.1714   -2.8146   59.4528 C.ar    1  ZINC000464752079   -0.1800
     23 C23       -11.2646   -1.5811   60.0790 C.ar    1  ZINC000464752079    0.1400
     24 O24       -12.4596   -1.1567   60.5699 O.3     1  ZINC000464752079   -0.3100
     25 C25       -13.6347   -1.7716   60.0378 C.3     1  ZINC000464752079    0.4100
     26 F26       -13.9489   -2.9074   60.7918 F       1  ZINC000464752079   -0.2000
     27 F27       -14.7000   -0.8665   60.0920 F       1  ZINC000464752079   -0.2000
     28 O28        -9.5979   -4.3974   58.3100 O.3     1  ZINC000464752079   -0.3000
     29 C29        -8.3350   -4.1113   57.6804 C.3     1  ZINC000464752079    0.2100
     30 O30        -7.7632   -3.0844   58.5122 O.3     1  ZINC000464752079   -0.3000
     31 H31        -8.2843    5.8721   64.6731 H       1  ZINC000464752079    0.0700
     32 H32        -8.5248    6.2972   66.3847 H       1  ZINC000464752079    0.0700
     33 H33        -7.7111    4.7745   65.9517 H       1  ZINC000464752079    0.0700
     34 H34       -10.9338    6.5246   66.1639 H       1  ZINC000464752079    0.1200
     35 H35       -13.1077    5.3680   66.1461 H       1  ZINC000464752079    0.1200
     36 H36       -13.2186    2.9635   65.6276 H       1  ZINC000464752079    0.1200
     37 H37       -11.1557    1.7156   65.1263 H       1  ZINC000464752079    0.1100
     38 H38        -7.2087    2.7075   66.7116 H       1  ZINC000464752079    0.0900
     39 H39        -8.7984    1.9830   67.1205 H       1  ZINC000464752079    0.0800
     40 H40        -6.5234    0.7699   65.4519 H       1  ZINC000464752079    0.0800
     41 H41        -7.4857   -0.0027   66.7564 H       1  ZINC000464752079    0.0900
     42 H42        -8.1634   -0.4548   64.1773 H       1  ZINC000464752079    0.0700
     43 H43        -9.4521   -0.1417   65.3800 H       1  ZINC000464752079    0.0700
     44 H44        -9.4856   -0.3887   62.6101 H       1  ZINC000464752079    0.4000
     45 H45       -11.2930    0.8632   60.9330 H       1  ZINC000464752079    0.0800
     46 H46        -9.6909    1.3077   60.2973 H       1  ZINC000464752079    0.0800
     47 H47        -8.0514   -0.5791   59.7970 H       1  ZINC000464752079    0.1500
     48 H48       -12.0471   -3.4394   59.3572 H       1  ZINC000464752079    0.1500
     49 H49       -13.4561   -2.0609   59.0021 H       1  ZINC000464752079    0.1900
     50 H50        -7.7003   -4.9974   57.6749 H       1  ZINC000464752079    0.1400
     51 H51        -8.4876   -3.7419   56.6663 H       1  ZINC000464752079    0.0900
@<TRIPOS>BOND
     1     1     2    1
     2     1    31    1
     3     1    32    1
     4     1    33    1
     5     2     7   ar
     6     2     3   ar
     7     3     4   ar
     8     3    34    1
     9     4     5   ar
    10     4    35    1
    11     5     6   ar
    12     5    36    1
    13     6     7   ar
    14     6    37    1
    15     7     8    1
    16     8     9    1
    17     8    13    1
    18     8    10    1
    19    10    11    1
    20    10    38    1
    21    10    39    1
    22    11    12    1
    23    11    40    1
    24    11    41    1
    25    12    13    1
    26    12    42    1
    27    12    43    1
    28    13    14   am
    29    14    15    2
    30    14    16   am
    31    16    17    1
    32    16    44    1
    33    17    18    1
    34    17    45    1
    35    17    46    1
    36    18    23   ar
    37    18    19   ar
    38    19    20   ar
    39    19    47    1
    40    20    30    1
    41    20    21   ar
    42    21    22   ar
    43    21    28    1
    44    22    23   ar
    45    22    48    1
    46    23    24    1
    47    24    25    1
    48    25    26    1
    49    25    27    1
    50    25    49    1
    51    28    29    1
    52    29    30    1
    53    29    50    1
    54    29    51    1
@<TRIPOS>SUBSTRUCTURE
     1 ZINC000464752079        1 TEMP              0 ****  ****    0 ROOT


##########                                Name:    ZINC000847397179
##########                DOCK_Rotatable_Bonds:                   9
##########                         Heavy_Atoms:                  25
##########                    Molecular_Weight:             350.461
##########                DOCK_Rotatable_Bonds:                   9
##########                       Formal_Charge:          0.00999979
##########                     HBond_Acceptors:                   7
##########                        HBond_Donors:                   2
##########                         Heavy_Atoms:                  25
##########                          Grid_Score:          -30.535656
##########                     Grid_vdw_energy:          -30.383123
##########                      Grid_es_energy:           -0.152532
##########           Internal_energy_repulsive:           84.181641

@<TRIPOS>MOLECULE
ZINC000847397179
 55 56 1 0 0
SMALL
USER_CHARGES


@<TRIPOS>ATOM
      1 C1        -11.7725   -2.8476   58.1872 C.3     1  ZINC000847397179   -0.1500
      2 C2        -10.2768   -2.6359   58.4299 C.3     1  ZINC000847397179   -0.1000
      3 H3         -9.8483   -2.0808   57.5955 H       1  ZINC000847397179    0.0900
      4 C4         -9.5824   -3.9940   58.5493 C.3     1  ZINC000847397179   -0.0200
      5 C5         -8.1611   -3.8759   58.0626 C.2     1  ZINC000847397179    0.0100
      6 C6         -7.0773   -3.6552   58.8308 C.2     1  ZINC000847397179   -0.0500
      7 N7         -5.9970   -3.6202   57.9910 N.pl3   1  ZINC000847397179   -0.5700
      8 C8         -6.4585   -3.8210   56.7379 C.2     1  ZINC000847397179    0.1800
      9 N9         -7.7530   -3.9781   56.7890 N.2     1  ZINC000847397179   -0.4900
     10 C10       -10.0803   -1.8574   59.7052 C.2     1  ZINC000847397179    0.5200
     11 O11        -9.2528   -2.2188   60.5149 O.2     1  ZINC000847397179   -0.5300
     12 N12       -10.8240   -0.7595   59.9459 N.am    1  ZINC000847397179   -0.7400
     13 C13       -10.6341   -0.0036   61.1864 C.3     1  ZINC000847397179    0.1200
     14 C14       -11.4748    1.2738   61.1390 C.3     1  ZINC000847397179    0.1500
     15 H15       -11.0904    1.9356   60.3629 H       1  ZINC000847397179    0.0800
     16 C16       -12.9332    0.9177   60.8343 C.3     1  ZINC000847397179   -0.1300
     17 C17       -13.7925    2.1809   60.9255 C.3     1  ZINC000847397179   -0.1200
     18 C18       -13.7200    2.7476   62.3454 C.3     1  ZINC000847397179   -0.1400
     19 C19       -12.2705    3.1245   62.6672 C.3     1  ZINC000847397179    0.1100
     20 N20       -11.4128    1.9529   62.4405 N.am    1  ZINC000847397179   -0.5900
     21 C21       -10.5891    1.5070   63.4095 C.2     1  ZINC000847397179    0.6500
     22 O22        -9.8849    0.5372   63.2097 O.2     1  ZINC000847397179   -0.5500
     23 O23       -10.5465    2.1362   64.5990 O.3     1  ZINC000847397179   -0.3600
     24 C24        -9.3237    2.8481   64.9249 C.3     1  ZINC000847397179    0.1400
     25 C25        -9.6119    3.8867   66.0108 C.3     1  ZINC000847397179   -0.1800
     26 C26        -8.2760    1.8559   65.4335 C.3     1  ZINC000847397179   -0.1400
     27 C27        -8.7944    3.5519   63.6737 C.3     1  ZINC000847397179   -0.1800
     28 H28       -12.2012   -3.4028   59.0215 H       1  ZINC000847397179    0.0500
     29 H29       -12.2673   -1.8800   58.1020 H       1  ZINC000847397179    0.0500
     30 H30       -11.9148   -3.4108   57.2647 H       1  ZINC000847397179    0.1000
     31 H31        -9.5843   -4.3127   59.5917 H       1  ZINC000847397179    0.0800
     32 H32       -10.1139   -4.7284   57.9440 H       1  ZINC000847397179    0.0800
     33 H33        -7.0632   -3.5294   59.9034 H       1  ZINC000847397179    0.1800
     34 H34        -5.0725   -3.4777   58.2479 H       1  ZINC000847397179    0.4200
     35 H35        -5.8557   -3.8507   55.8422 H       1  ZINC000847397179    0.2100
     36 H36       -11.4849   -0.4698   59.2977 H       1  ZINC000847397179    0.3900
     37 H37       -10.9463   -0.6129   62.0345 H       1  ZINC000847397179    0.0800
     38 H38        -9.5815    0.2580   61.2949 H       1  ZINC000847397179    0.1000
     39 H39       -13.0038    0.5016   59.8293 H       1  ZINC000847397179    0.0800
     40 H40       -13.2874    0.1838   61.5582 H       1  ZINC000847397179    0.0700
     41 H41       -13.4223    2.9236   60.2189 H       1  ZINC000847397179    0.0700
     42 H42       -14.8267    1.9347   60.6851 H       1  ZINC000847397179    0.0700
     43 H43       -14.3506    3.6339   62.4159 H       1  ZINC000847397179    0.0800
     44 H44       -14.0667    1.9964   63.0550 H       1  ZINC000847397179    0.0700
     45 H45       -11.9518    3.9392   62.0170 H       1  ZINC000847397179    0.0700
     46 H46       -12.1965    3.4354   63.7092 H       1  ZINC000847397179    0.0900
     47 H47        -9.9890    3.3854   66.9022 H       1  ZINC000847397179    0.0600
     48 H48        -8.6940    4.4211   66.2553 H       1  ZINC000847397179    0.0700
     49 H49       -10.3584    4.5936   65.6484 H       1  ZINC000847397179    0.0900
     50 H50        -8.0705    1.1160   64.6599 H       1  ZINC000847397179    0.0700
     51 H51        -7.3580    2.3903   65.6782 H       1  ZINC000847397179    0.0800
     52 H52        -8.6529    1.3545   66.3249 H       1  ZINC000847397179    0.0700
     53 H53        -9.5408    4.2589   63.3114 H       1  ZINC000847397179    0.0900
     54 H54        -7.8765    4.0864   63.9183 H       1  ZINC000847397179    0.0700
     55 H55        -8.5890    2.8120   62.9001 H       1  ZINC000847397179    0.0600
@<TRIPOS>BOND
     1     1     2    1
     2     1    28    1
     3     1    29    1
     4     1    30    1
     5     2     3    1
     6     2     4    1
     7     2    10    1
     8     4     5    1
     9     4    31    1
    10     4    32    1
    11     5     9    1
    12     5     6    2
    13     6     7    1
    14     6    33    1
    15     7     8    1
    16     7    34    1
    17     8     9    2
    18     8    35    1
    19    10    11    2
    20    10    12   am
    21    12    13    1
    22    12    36    1
    23    13    14    1
    24    13    37    1
    25    13    38    1
    26    14    15    1
    27    14    20    1
    28    14    16    1
    29    16    17    1
    30    16    39    1
    31    16    40    1
    32    17    18    1
    33    17    41    1
    34    17    42    1
    35    18    19    1
    36    18    43    1
    37    18    44    1
    38    19    20    1
    39    19    45    1
    40    19    46    1
    41    20    21   am
    42    21    22    2
    43    21    23    1
    44    23    24    1
    45    24    25    1
    46    24    26    1
    47    24    27    1
    48    25    47    1
    49    25    48    1
    50    25    49    1
    51    26    50    1
    52    26    51    1
    53    26    52    1
    54    27    53    1
    55    27    54    1
    56    27    55    1
@<TRIPOS>SUBSTRUCTURE
     1 ZINC000847397179        1 TEMP              0 ****  ****    0 ROOT


##########                                Name:    ZINC000820901229
##########                DOCK_Rotatable_Bonds:                   3
##########                         Heavy_Atoms:                  18
##########                    Molecular_Weight:             331.233
##########                DOCK_Rotatable_Bonds:                   3
##########                       Formal_Charge:           0.0099999
##########                     HBond_Acceptors:                   5
##########                        HBond_Donors:                   1
##########                         Heavy_Atoms:                  18
##########                          Grid_Score:          -30.509396
##########                     Grid_vdw_energy:          -28.758429
##########                      Grid_es_energy:           -1.750967
##########           Internal_energy_repulsive:            4.974184

@<TRIPOS>MOLECULE
ZINC000820901229
 33 35 1 0 0
SMALL
USER_CHARGES


@<TRIPOS>ATOM
      1 O1        -10.8096   -3.4075   60.0989 O.2     1  ZINC000820901229   -0.5300
      2 C2        -10.4751   -3.3526   58.9307 C.2     1  ZINC000820901229    0.6000
      3 N3        -11.4051   -3.1783   57.9710 N.am    1  ZINC000820901229   -0.7100
      4 C4        -12.8195   -3.0609   58.3341 C.3     1  ZINC000820901229    0.1600
      5 H5        -12.9936   -3.5297   59.3027 H       1  ZINC000820901229    0.1000
      6 C6        -13.6921   -3.7344   57.2627 C.3     1  ZINC000820901229   -0.1300
      7 C7        -15.1778   -3.5780   57.5727 C.3     1  ZINC000820901229   -0.1100
      8 C8        -15.5588   -2.1005   57.7629 C.3     1  ZINC000820901229   -0.1100
      9 C9        -14.6936   -1.5510   58.8783 C.3     1  ZINC000820901229    0.0800
     10 H10       -14.8036   -2.1713   59.7678 H       1  ZINC000820901229    0.0700
     11 O11       -14.8576   -0.1809   59.2262 O.3     1  ZINC000820901229   -0.3700
     12 C12       -13.6604    0.1705   59.9658 C.3     1  ZINC000820901229    0.0500
     13 C13       -12.5286   -0.7682   59.4731 C.3     1  ZINC000820901229   -0.1500
     14 C14       -13.2191   -1.5970   58.3894 C.3     1  ZINC000820901229   -0.1400
     15 H15       -13.1115   -1.1250   57.4128 H       1  ZINC000820901229    0.0900
     16 C16        -9.0534   -3.4705   58.5656 C.2     1  ZINC000820901229    0.0100
     17 C17        -8.0461   -3.2818   59.4469 C.2     1  ZINC000820901229   -0.2200
     18 S18        -6.5563   -3.5068   58.6396 S.3     1  ZINC000820901229    0.3100
     19 C19        -7.3631   -3.8400   57.1718 C.2     1  ZINC000820901229   -0.0100
     20 Br20       -6.5025   -4.2494   55.5385 Br      1  ZINC000820901229    0.0700
     21 N21        -8.6389   -3.7797   57.3335 N.2     1  ZINC000820901229   -0.4100
     22 H22       -11.1379   -3.1304   57.0397 H       1  ZINC000820901229    0.4100
     23 H23       -13.4806   -3.2809   56.2944 H       1  ZINC000820901229    0.0700
     24 H24       -13.4471   -4.7955   57.2190 H       1  ZINC000820901229    0.0700
     25 H25       -15.7594   -3.9930   56.7495 H       1  ZINC000820901229    0.0800
     26 H26       -15.4114   -4.1267   58.4850 H       1  ZINC000820901229    0.0700
     27 H27       -15.3717   -1.5479   56.8421 H       1  ZINC000820901229    0.0700
     28 H28       -16.6109   -2.0212   58.0367 H       1  ZINC000820901229    0.0800
     29 H29       -13.3936    1.2088   59.7687 H       1  ZINC000820901229    0.0900
     30 H30       -13.8266    0.0233   61.0329 H       1  ZINC000820901229    0.0600
     31 H31       -11.7071   -0.1912   59.0484 H       1  ZINC000820901229    0.0800
     32 H32       -12.1749   -1.4041   60.2847 H       1  ZINC000820901229    0.0800
     33 H33        -8.1633   -3.0293   60.4904 H       1  ZINC000820901229    0.2000
@<TRIPOS>BOND
     1     1     2    2
     2     2     3   am
     3     2    16    1
     4     3     4    1
     5     3    22    1
     6     4     5    1
     7     4    14    1
     8     4     6    1
     9     6     7    1
    10     6    23    1
    11     6    24    1
    12     7     8    1
    13     7    25    1
    14     7    26    1
    15     8     9    1
    16     8    27    1
    17     8    28    1
    18     9    10    1
    19     9    14    1
    20     9    11    1
    21    11    12    1
    22    12    13    1
    23    12    29    1
    24    12    30    1
    25    13    14    1
    26    13    31    1
    27    13    32    1
    28    14    15    1
    29    16    21    1
    30    16    17    2
    31    17    18    1
    32    17    33    1
    33    18    19    1
    34    19    20    1
    35    19    21    2
@<TRIPOS>SUBSTRUCTURE
     1 ZINC000820901229        1 TEMP              0 ****  ****    0 ROOT


##########                                Name:    ZINC000281092425
##########                DOCK_Rotatable_Bonds:                   8
##########                         Heavy_Atoms:                  23
##########                    Molecular_Weight:             332.304
##########                DOCK_Rotatable_Bonds:                   8
##########                       Formal_Charge:         2.98023e-08
##########                     HBond_Acceptors:                   9
##########                        HBond_Donors:                   2
##########                         Heavy_Atoms:                  23
##########                          Grid_Score:          -30.502062
##########                     Grid_vdw_energy:          -29.564468
##########                      Grid_es_energy:           -0.937594
##########           Internal_energy_repulsive:           16.171965

@<TRIPOS>MOLECULE
ZINC000281092425
 41 42 1 0 0
SMALL
USER_CHARGES


@<TRIPOS>ATOM
      1 O1        -11.7756    3.0620   64.4120 O.2     1  ZINC000281092425   -0.1800
      2 N2        -10.7563    2.3979   64.4715 N.pl3   1  ZINC000281092425    0.0400
      3 O3        -10.0005    2.5258   65.4181 O.2     1  ZINC000281092425   -0.1500
      4 C4        -10.4391    1.4311   63.3966 C.ar    1  ZINC000281092425   -0.1200
      5 C5        -11.2971    1.2868   62.3233 C.ar    1  ZINC000281092425    0.0200
      6 C6        -11.0046    0.3855   61.3179 C.ar    1  ZINC000281092425   -0.2200
      7 C7         -9.8458   -0.3780   61.3839 C.ar    1  ZINC000281092425    0.3000
      8 N8         -9.5496   -1.2890   60.3676 N.pl3   1  ZINC000281092425   -0.7200
      9 C9        -10.4183   -2.4478   60.1465 C.3     1  ZINC000281092425    0.1200
     10 C10       -10.5718   -2.6908   58.6437 C.3     1  ZINC000281092425   -0.0900
     11 H11       -10.1793   -1.8346   58.0953 H       1  ZINC000281092425    0.0900
     12 C12        -9.7961   -3.9489   58.2487 C.3     1  ZINC000281092425    0.0800
     13 O13        -8.3937   -3.6992   58.3627 O.3     1  ZINC000281092425   -0.5700
     14 C14       -12.0524   -2.8774   58.3060 C.3     1  ZINC000281092425   -0.1100
     15 H15       -12.4971   -3.6505   58.9328 H       1  ZINC000281092425    0.0900
     16 C16       -12.8251   -1.5379   58.4487 C.3     1  ZINC000281092425   -0.1600
     17 C17       -13.9756   -1.7523   57.4332 C.3     1  ZINC000281092425    0.0500
     18 O18       -13.3855   -2.4833   56.3467 O.3     1  ZINC000281092425   -0.3900
     19 C19       -12.2369   -3.2099   56.8098 C.3     1  ZINC000281092425    0.0700
     20 C20        -8.9824   -0.2340   62.4616 C.ar    1  ZINC000281092425   -0.2800
     21 C21        -9.2772    0.6748   63.4655 C.ar    1  ZINC000281092425    0.2300
     22 O22        -8.4338    0.8185   64.5214 O.3     1  ZINC000281092425   -0.2900
     23 C23        -7.7561   -0.3549   64.9748 C.3     1  ZINC000281092425    0.4100
     24 F24        -7.0881   -0.0745   66.1718 F       1  ZINC000281092425   -0.1900
     25 F25        -8.6865   -1.3776   65.1886 F       1  ZINC000281092425   -0.1900
     26 H26       -12.1984    1.8796   62.2703 H       1  ZINC000281092425    0.1600
     27 H27       -11.6772    0.2741   60.4803 H       1  ZINC000281092425    0.1500
     28 H28        -8.7688   -1.1545   59.8081 H       1  ZINC000281092425    0.4100
     29 H29        -9.9760   -3.3278   60.6135 H       1  ZINC000281092425    0.0800
     30 H30       -11.3975   -2.2568   60.5856 H       1  ZINC000281092425    0.0800
     31 H31       -10.0739   -4.7697   58.9099 H       1  ZINC000281092425    0.0500
     32 H32       -10.0352   -4.2149   57.2190 H       1  ZINC000281092425    0.0500
     33 H33        -8.1087   -3.4564   59.2543 H       1  ZINC000281092425    0.3800
     34 H34       -13.2119   -1.4132   59.4601 H       1  ZINC000281092425    0.0800
     35 H35       -12.2007   -0.6917   58.1618 H       1  ZINC000281092425    0.0800
     36 H36       -14.7782   -2.3330   57.8881 H       1  ZINC000281092425    0.0600
     37 H37       -14.3541   -0.7924   57.0821 H       1  ZINC000281092425    0.0900
     38 H38       -11.3531   -2.8987   56.2527 H       1  ZINC000281092425    0.0800
     39 H39       -12.3993   -4.2800   56.6800 H       1  ZINC000281092425    0.0700
     40 H40        -8.0809   -0.8262   62.5155 H       1  ZINC000281092425    0.1500
     41 H41        -7.0346   -0.6717   64.2217 H       1  ZINC000281092425    0.1900
@<TRIPOS>BOND
     1     1     2    2
     2     2     3    2
     3     2     4    1
     4     4    21   ar
     5     4     5   ar
     6     5     6   ar
     7     5    26    1
     8     6     7   ar
     9     6    27    1
    10     7     8    1
    11     7    20   ar
    12     8     9    1
    13     8    28    1
    14     9    10    1
    15     9    29    1
    16     9    30    1
    17    10    11    1
    18    10    12    1
    19    10    14    1
    20    12    13    1
    21    12    31    1
    22    12    32    1
    23    13    33    1
    24    14    15    1
    25    14    19    1
    26    14    16    1
    27    16    17    1
    28    16    34    1
    29    16    35    1
    30    17    18    1
    31    17    36    1
    32    17    37    1
    33    18    19    1
    34    19    38    1
    35    19    39    1
    36    20    21   ar
    37    20    40    1
    38    21    22    1
    39    22    23    1
    40    23    24    1
    41    23    25    1
    42    23    41    1
@<TRIPOS>SUBSTRUCTURE
     1 ZINC000281092425        1 TEMP              0 ****  ****    0 ROOT


##########                                Name:    ZINC000509132103
##########                DOCK_Rotatable_Bonds:                   7
##########                         Heavy_Atoms:                  29
##########                    Molecular_Weight:              405.52
##########                DOCK_Rotatable_Bonds:                   7
##########                       Formal_Charge:          -0.0499998
##########                     HBond_Acceptors:                   6
##########                        HBond_Donors:                   0
##########                         Heavy_Atoms:                  29
##########                          Grid_Score:          -30.487400
##########                     Grid_vdw_energy:          -29.010151
##########                      Grid_es_energy:           -1.477249
##########           Internal_energy_repulsive:           16.582294

@<TRIPOS>MOLECULE
ZINC000509132103
 52 55 1 0 0
SMALL
USER_CHARGES


@<TRIPOS>ATOM
      1 C1        -15.5483    1.4531   54.9506 C.3     1  ZINC000509132103    0.0300
      2 O2        -15.7428    0.0866   54.5805 O.3     1  ZINC000509132103   -0.3000
      3 C3        -15.4775   -0.8510   55.5249 C.ar    1  ZINC000509132103    0.2700
      4 C4        -15.6381   -2.2027   55.2323 C.ar    1  ZINC000509132103   -0.1300
      5 C5        -15.3540   -3.1216   56.2314 C.ar    1  ZINC000509132103   -0.0700
      6 C6        -14.9276   -2.6380   57.4596 C.ar    1  ZINC000509132103    0.0500
      7 C7        -14.6061   -3.5969   58.5769 C.3     1  ZINC000509132103   -0.0500
      8 S8        -13.3263   -2.8770   59.6421 S.3     1  ZINC000509132103   -0.1500
      9 C9        -11.8593   -2.8777   58.5751 C.3     1  ZINC000509132103   -0.1300
     10 C10       -10.6285   -2.6467   59.4133 C.2     1  ZINC000509132103    0.5400
     11 O11        -9.8514   -3.5562   59.6132 O.2     1  ZINC000509132103   -0.5100
     12 N12       -10.3911   -1.4294   59.9408 N.am    1  ZINC000509132103   -0.6100
     13 C13        -9.2025   -1.1721   60.7610 C.3     1  ZINC000509132103    0.1500
     14 C14        -9.5898   -0.3728   61.9798 C.ar    1  ZINC000509132103   -0.1000
     15 C15        -8.6505   -0.2405   62.9928 C.ar    1  ZINC000509132103   -0.1100
     16 C16        -8.9425    0.4875   64.1283 C.ar    1  ZINC000509132103   -0.1200
     17 C17       -10.1796    1.0905   64.2563 C.ar    1  ZINC000509132103   -0.1200
     18 C18       -11.1156    0.9564   63.2517 C.ar    1  ZINC000509132103   -0.1100
     19 C19       -10.8265    0.2190   62.1103 C.ar    1  ZINC000509132103   -0.0600
     20 C20       -11.9064    0.0936   61.0680 C.3     1  ZINC000509132103   -0.0200
     21 H21       -12.6225   -0.6651   61.3833 H       1  ZINC000509132103    0.1000
     22 C22       -12.6151    1.4160   60.9270 C.ar    1  ZINC000509132103   -0.0800
     23 C23       -11.8841    2.5787   60.7707 C.ar    1  ZINC000509132103   -0.1100
     24 C24       -12.5343    3.7918   60.6413 C.ar    1  ZINC000509132103   -0.1200
     25 C25       -13.9154    3.8421   60.6679 C.ar    1  ZINC000509132103   -0.1200
     26 C26       -14.6464    2.6791   60.8233 C.ar    1  ZINC000509132103   -0.1200
     27 C27       -13.9964    1.4656   60.9483 C.ar    1  ZINC000509132103   -0.1100
     28 C28       -11.3113   -0.3031   59.7118 C.3     1  ZINC000509132103    0.1200
     29 N29       -14.8034   -1.3392   57.6491 N.ar    1  ZINC000509132103   -0.1900
     30 N30       -15.0597   -0.4847   56.7262 N.ar    1  ZINC000509132103   -0.3000
     31 H31       -14.5070    1.6084   55.2330 H       1  ZINC000509132103    0.0600
     32 H32       -15.7956    2.0969   54.1064 H       1  ZINC000509132103    0.1000
     33 H33       -16.1939    1.6965   55.7944 H       1  ZINC000509132103    0.0600
     34 H34       -15.9738   -2.5256   54.2579 H       1  ZINC000509132103    0.1600
     35 H35       -15.4618   -4.1822   56.0584 H       1  ZINC000509132103    0.1600
     36 H36       -15.5047   -3.7845   59.1646 H       1  ZINC000509132103    0.1100
     37 H37       -14.2438   -4.5354   58.1572 H       1  ZINC000509132103    0.1000
     38 H38       -11.7789   -3.8396   58.0687 H       1  ZINC000509132103    0.1100
     39 H39       -11.9486   -2.0833   57.8340 H       1  ZINC000509132103    0.1100
     40 H40        -8.7650   -2.1204   61.0732 H       1  ZINC000509132103    0.1000
     41 H41        -8.4728   -0.6118   60.1765 H       1  ZINC000509132103    0.0900
     42 H42        -7.6837   -0.7112   62.8919 H       1  ZINC000509132103    0.1200
     43 H43        -8.2074    0.5860   64.9133 H       1  ZINC000509132103    0.1300
     44 H44       -10.4131    1.6647   65.1406 H       1  ZINC000509132103    0.1200
     45 H45       -12.0816    1.4284   63.3536 H       1  ZINC000509132103    0.1200
     46 H46       -10.8050    2.5396   60.7499 H       1  ZINC000509132103    0.1200
     47 H47       -11.9631    4.7004   60.5199 H       1  ZINC000509132103    0.1200
     48 H48       -14.4234    4.7898   60.5676 H       1  ZINC000509132103    0.1200
     49 H49       -15.7256    2.7184   60.8444 H       1  ZINC000509132103    0.1200
     50 H50       -14.5676    0.5570   61.0698 H       1  ZINC000509132103    0.1200
     51 H51       -10.7698    0.5413   59.2855 H       1  ZINC000509132103    0.0800
     52 H52       -12.1085   -0.6104   59.0350 H       1  ZINC000509132103    0.1000
@<TRIPOS>BOND
     1     1     2    1
     2     1    31    1
     3     1    32    1
     4     1    33    1
     5     2     3    1
     6     3    30   ar
     7     3     4   ar
     8     4     5   ar
     9     4    34    1
    10     5     6   ar
    11     5    35    1
    12     6     7    1
    13     6    29   ar
    14     7     8    1
    15     7    36    1
    16     7    37    1
    17     8     9    1
    18     9    10    1
    19     9    38    1
    20     9    39    1
    21    10    11    2
    22    10    12   am
    23    12    28    1
    24    12    13    1
    25    13    14    1
    26    13    40    1
    27    13    41    1
    28    14    19   ar
    29    14    15   ar
    30    15    16   ar
    31    15    42    1
    32    16    17   ar
    33    16    43    1
    34    17    18   ar
    35    17    44    1
    36    18    19   ar
    37    18    45    1
    38    19    20    1
    39    20    21    1
    40    20    22    1
    41    20    28    1
    42    22    27   ar
    43    22    23   ar
    44    23    24   ar
    45    23    46    1
    46    24    25   ar
    47    24    47    1
    48    25    26   ar
    49    25    48    1
    50    26    27   ar
    51    26    49    1
    52    27    50    1
    53    28    51    1
    54    28    52    1
    55    29    30   ar
@<TRIPOS>SUBSTRUCTURE
     1 ZINC000509132103        1 TEMP              0 ****  ****    0 ROOT


##########                                Name:    ZINC000859496582
##########                DOCK_Rotatable_Bonds:                  10
##########                         Heavy_Atoms:                  26
##########                    Molecular_Weight:             361.438
##########                DOCK_Rotatable_Bonds:                  10
##########                       Formal_Charge:           0.0100006
##########                     HBond_Acceptors:                   6
##########                        HBond_Donors:                   0
##########                         Heavy_Atoms:                  26
##########                          Grid_Score:          -30.471621
##########                     Grid_vdw_energy:          -30.162344
##########                      Grid_es_energy:           -0.309277
##########           Internal_energy_repulsive:            9.985165

@<TRIPOS>MOLECULE
ZINC000859496582
 53 54 1 0 0
SMALL
USER_CHARGES


@<TRIPOS>ATOM
      1 C1        -15.5296   -0.8375   47.5682 C.3     1  ZINC000859496582    0.0300
      2 O2        -14.6755   -1.0752   48.7181 O.3     1  ZINC000859496582   -0.3600
      3 C3        -14.2836    0.0005   49.4188 C.2     1  ZINC000859496582    0.4600
      4 O4        -14.6419    1.1042   49.0822 O.2     1  ZINC000859496582   -0.5100
      5 C5        -13.3965   -0.1684   50.6253 C.3     1  ZINC000859496582   -0.1100
      6 C6        -14.2625   -0.3480   51.8738 C.3     1  ZINC000859496582   -0.1100
      7 C7        -13.3623   -0.5610   53.0926 C.3     1  ZINC000859496582   -0.1200
      8 C8        -14.2248   -0.6625   54.3522 C.3     1  ZINC000859496582    0.0700
      9 O9        -13.3695   -0.8479   55.5108 O.3     1  ZINC000859496582   -0.3500
     10 C10       -13.9740   -0.9430   56.7055 C.2     1  ZINC000859496582    0.4700
     11 O11       -15.1771   -0.8632   56.7818 O.2     1  ZINC000859496582   -0.5000
     12 C12       -13.1519   -1.1492   57.9516 C.3     1  ZINC000859496582   -0.1000
     13 H13       -12.2176   -1.6475   57.6928 H       1  ZINC000859496582    0.1200
     14 C14       -13.9344   -2.0140   58.9425 C.3     1  ZINC000859496582   -0.1100
     15 C15       -13.0874   -2.2515   60.1948 C.3     1  ZINC000859496582   -0.1300
     16 C16       -12.7823   -0.9068   60.8624 C.3     1  ZINC000859496582    0.1100
     17 N17       -12.1595   -0.0177   59.8723 N.am    1  ZINC000859496582   -0.6100
     18 C18       -10.9796    0.5796   60.1319 C.2     1  ZINC000859496582    0.5700
     19 O19       -10.4746    1.3130   59.3045 O.2     1  ZINC000859496582   -0.5300
     20 C20       -10.2995    0.3428   61.4232 C.ar    1  ZINC000859496582   -0.1400
     21 C21        -9.1842   -0.4942   61.4848 C.ar    1  ZINC000859496582   -0.0900
     22 C22        -8.5540   -0.7105   62.6928 C.ar    1  ZINC000859496582   -0.1200
     23 C23        -9.0254   -0.1003   63.8416 C.ar    1  ZINC000859496582   -0.0600
     24 C24        -8.3321   -0.3416   65.1577 C.3     1  ZINC000859496582   -0.1200
     25 C25       -10.1301    0.7309   63.7873 C.ar    1  ZINC000859496582   -0.1200
     26 C26       -10.7664    0.9599   62.5848 C.ar    1  ZINC000859496582   -0.0600
     27 C27       -12.8469    0.2079   58.5934 C.3     1  ZINC000859496582    0.1100
     28 H28       -15.0097   -0.1973   46.8555 H       1  ZINC000859496582    0.0600
     29 H29       -15.7722   -1.7881   47.0931 H       1  ZINC000859496582    0.1000
     30 H30       -16.4482   -0.3489   47.8928 H       1  ZINC000859496582    0.0600
     31 H31       -12.7649   -1.0466   50.4918 H       1  ZINC000859496582    0.1100
     32 H32       -12.7697    0.7157   50.7421 H       1  ZINC000859496582    0.1100
     33 H33       -14.8727    0.5425   52.0240 H       1  ZINC000859496582    0.0800
     34 H34       -14.9105   -1.2150   51.7449 H       1  ZINC000859496582    0.0800
     35 H35       -12.7927   -1.4818   52.9671 H       1  ZINC000859496582    0.0800
     36 H36       -12.6761    0.2805   53.1889 H       1  ZINC000859496582    0.0800
     37 H37       -14.8038    0.2534   54.4709 H       1  ZINC000859496582    0.0700
     38 H38       -14.9024   -1.5115   54.2611 H       1  ZINC000859496582    0.0700
     39 H39       -14.8573   -1.5043   59.2195 H       1  ZINC000859496582    0.0800
     40 H40       -14.1736   -2.9712   58.4791 H       1  ZINC000859496582    0.0800
     41 H41       -13.6361   -2.8868   60.8900 H       1  ZINC000859496582    0.0900
     42 H42       -12.1535   -2.7390   59.9152 H       1  ZINC000859496582    0.0700
     43 H43       -13.7085   -0.4598   61.2237 H       1  ZINC000859496582    0.0700
     44 H44       -12.0983   -1.0602   61.6972 H       1  ZINC000859496582    0.1000
     45 H45        -8.8158   -0.9717   60.5889 H       1  ZINC000859496582    0.1300
     46 H46        -7.6910   -1.3580   62.7419 H       1  ZINC000859496582    0.1300
     47 H47        -7.5511    0.4053   65.2993 H       1  ZINC000859496582    0.0800
     48 H48        -9.0565   -0.2680   65.9688 H       1  ZINC000859496582    0.0700
     49 H49        -7.8874   -1.3368   65.1570 H       1  ZINC000859496582    0.0700
     50 H50       -10.4929    1.2045   64.6876 H       1  ZINC000859496582    0.1300
     51 H51       -11.6285    1.6092   62.5437 H       1  ZINC000859496582    0.1300
     52 H52       -12.2055    0.7901   57.9316 H       1  ZINC000859496582    0.1100
     53 H53       -13.7785    0.7458   58.7691 H       1  ZINC000859496582    0.0800
@<TRIPOS>BOND
     1     1     2    1
     2     1    28    1
     3     1    29    1
     4     1    30    1
     5     2     3    1
     6     3     4    2
     7     3     5    1
     8     5     6    1
     9     5    31    1
    10     5    32    1
    11     6     7    1
    12     6    33    1
    13     6    34    1
    14     7     8    1
    15     7    35    1
    16     7    36    1
    17     8     9    1
    18     8    37    1
    19     8    38    1
    20     9    10    1
    21    10    11    2
    22    10    12    1
    23    12    13    1
    24    12    27    1
    25    12    14    1
    26    14    15    1
    27    14    39    1
    28    14    40    1
    29    15    16    1
    30    15    41    1
    31    15    42    1
    32    16    17    1
    33    16    43    1
    34    16    44    1
    35    17    18   am
    36    17    27    1
    37    18    19    2
    38    18    20    1
    39    20    26   ar
    40    20    21   ar
    41    21    22   ar
    42    21    45    1
    43    22    23   ar
    44    22    46    1
    45    23    24    1
    46    23    25   ar
    47    24    47    1
    48    24    48    1
    49    24    49    1
    50    25    26   ar
    51    25    50    1
    52    26    51    1
    53    27    52    1
    54    27    53    1
@<TRIPOS>SUBSTRUCTURE
     1 ZINC000859496582        1 TEMP              0 ****  ****    0 ROOT


##########                                Name:    ZINC000655235556
##########                DOCK_Rotatable_Bonds:                   6
##########                         Heavy_Atoms:                  23
##########                    Molecular_Weight:             336.778
##########                DOCK_Rotatable_Bonds:                   6
##########                       Formal_Charge:         -0.00999996
##########                     HBond_Acceptors:                   8
##########                        HBond_Donors:                   2
##########                         Heavy_Atoms:                  23
##########                          Grid_Score:          -30.448837
##########                     Grid_vdw_energy:          -28.651417
##########                      Grid_es_energy:           -1.797421
##########           Internal_energy_repulsive:           10.330333

@<TRIPOS>MOLECULE
ZINC000655235556
 40 42 1 0 0
SMALL
USER_CHARGES


@<TRIPOS>ATOM
      1 C1         -9.9372   -3.3240   59.6646 C.3     1  ZINC000655235556    0.0200
      2 O2        -10.6697   -2.1058   59.8119 O.3     1  ZINC000655235556   -0.2700
      3 C3        -11.9987   -2.1500   59.5436 C.ar    1  ZINC000655235556    0.2000
      4 C4        -12.4971   -3.0820   58.6469 C.ar    1  ZINC000655235556   -0.2100
      5 C5        -13.8519   -3.1261   58.3750 C.ar    1  ZINC000655235556    0.0300
      6 Cl6       -14.4691   -4.2961   57.2507 Cl      1  ZINC000655235556   -0.0500
      7 C7        -14.7205   -2.2413   58.9957 C.ar    1  ZINC000655235556   -0.1600
      8 C8        -14.2410   -1.3089   59.8895 C.ar    1  ZINC000655235556   -0.0300
      9 C9        -12.8748   -1.2570   60.1768 C.ar    1  ZINC000655235556   -0.1700
     10 C10       -12.3556   -0.2615   61.1329 C.2     1  ZINC000655235556    0.5700
     11 O11       -12.6710   -0.3228   62.3058 O.2     1  ZINC000655235556   -0.5100
     12 N12       -11.5316    0.7162   60.7069 N.am    1  ZINC000655235556   -0.7300
     13 C13       -11.0144    1.7042   61.6571 C.3     1  ZINC000655235556    0.2100
     14 C14       -10.0606    1.0324   62.6109 C.2     1  ZINC000655235556    0.2600
     15 N15        -9.8216    1.3989   63.8439 N.2     1  ZINC000655235556   -0.5100
     16 C16        -8.9249    0.5805   64.3930 C.2     1  ZINC000655235556    0.2200
     17 C17        -8.3957    0.6791   65.8007 C.3     1  ZINC000655235556    0.1700
     18 H18        -9.0322    0.1070   66.4757 H       1  ZINC000655235556    0.1100
     19 C19        -8.3578    2.1575   66.2435 C.3     1  ZINC000655235556   -0.1400
     20 C20        -7.0290    2.2276   67.0445 C.3     1  ZINC000655235556   -0.1500
     21 C21        -6.1550    1.2226   66.2527 C.3     1  ZINC000655235556    0.0500
     22 O22        -7.0559    0.1753   65.8523 O.3     1  ZINC000655235556   -0.3700
     23 N23        -8.5793   -0.3221   63.5130 N.2     1  ZINC000655235556   -0.2800
     24 N24        -9.3110   -0.0514   62.3452 N.pl3   1  ZINC000655235556   -0.4700
     25 H25       -10.3468   -4.0778   60.3370 H       1  ZINC000655235556    0.0600
     26 H26       -10.0168   -3.6736   58.6353 H       1  ZINC000655235556    0.0600
     27 H27        -8.8894   -3.1497   59.9092 H       1  ZINC000655235556    0.1100
     28 H28       -11.8264   -3.7743   58.1598 H       1  ZINC000655235556    0.1500
     29 H29       -15.7773   -2.2829   58.7772 H       1  ZINC000655235556    0.1400
     30 H30       -14.9211   -0.6214   60.3704 H       1  ZINC000655235556    0.1400
     31 H31       -11.2810    0.7659   59.7711 H       1  ZINC000655235556    0.4000
     32 H32       -10.4911    2.4912   61.1141 H       1  ZINC000655235556    0.1000
     33 H33       -11.8428    2.1381   62.2171 H       1  ZINC000655235556    0.1100
     34 H34        -8.3252    2.8207   65.3791 H       1  ZINC000655235556    0.0800
     35 H35        -9.2088    2.3929   66.8826 H       1  ZINC000655235556    0.0900
     36 H36        -6.6028    3.2303   67.0111 H       1  ZINC000655235556    0.0900
     37 H37        -7.1727    1.8979   68.0733 H       1  ZINC000655235556    0.0800
     38 H38        -5.7223    1.7058   65.3767 H       1  ZINC000655235556    0.0600
     39 H39        -5.3685    0.8205   66.8912 H       1  ZINC000655235556    0.0900
     40 H40        -9.2773   -0.5446   61.5107 H       1  ZINC000655235556    0.4400
@<TRIPOS>BOND
     1     1     2    1
     2     1    25    1
     3     1    26    1
     4     1    27    1
     5     2     3    1
     6     3     9   ar
     7     3     4   ar
     8     4     5   ar
     9     4    28    1
    10     5     6    1
    11     5     7   ar
    12     7     8   ar
    13     7    29    1
    14     8     9   ar
    15     8    30    1
    16     9    10    1
    17    10    11    2
    18    10    12   am
    19    12    13    1
    20    12    31    1
    21    13    14    1
    22    13    32    1
    23    13    33    1
    24    14    24    1
    25    14    15    2
    26    15    16    1
    27    16    17    1
    28    16    23    2
    29    17    18    1
    30    17    22    1
    31    17    19    1
    32    19    20    1
    33    19    34    1
    34    19    35    1
    35    20    21    1
    36    20    36    1
    37    20    37    1
    38    21    22    1
    39    21    38    1
    40    21    39    1
    41    23    24    1
    42    24    40    1
@<TRIPOS>SUBSTRUCTURE
     1 ZINC000655235556        1 TEMP              0 ****  ****    0 ROOT


##########                                Name:    ZINC000154446008
##########                DOCK_Rotatable_Bonds:                   5
##########                         Heavy_Atoms:                  24
##########                    Molecular_Weight:              349.41
##########                DOCK_Rotatable_Bonds:                   5
##########                       Formal_Charge:          -0.0199999
##########                     HBond_Acceptors:                   8
##########                        HBond_Donors:                   0
##########                         Heavy_Atoms:                  24
##########                          Grid_Score:          -30.424793
##########                     Grid_vdw_energy:          -29.284788
##########                      Grid_es_energy:           -1.140006
##########           Internal_energy_repulsive:           20.672920

@<TRIPOS>MOLECULE
ZINC000154446008
 43 45 1 0 0
SMALL
USER_CHARGES


@<TRIPOS>ATOM
      1 O1        -13.0437   -4.4185   57.2579 O.2     1  ZINC000154446008   -0.5000
      2 C2        -12.3151   -3.5292   57.6572 C.2     1  ZINC000154446008    0.5900
      3 C3        -10.8661   -3.6237   57.4574 C.2     1  ZINC000154446008   -0.2300
      4 C4        -10.2375   -3.7254   56.2484 C.2     1  ZINC000154446008   -0.0600
      5 C5         -8.8686   -3.7983   56.3517 C.2     1  ZINC000154446008   -0.0500
      6 C6         -8.3907   -3.7580   57.6010 C.2     1  ZINC000154446008   -0.2100
      7 N7         -6.9540   -3.8213   57.9521 N.pl3   1  ZINC000154446008    0.0500
      8 O8         -6.1161   -3.9180   57.0733 O.2     1  ZINC000154446008   -0.1300
      9 O9         -6.6099   -3.7768   59.1196 O.2     1  ZINC000154446008   -0.1500
     10 S10        -9.6578   -3.6166   58.7348 S.3     1  ZINC000154446008    0.3500
     11 N11       -12.8412   -2.4549   58.2782 N.am    1  ZINC000154446008   -0.6100
     12 C12       -14.2916   -2.3497   58.4907 C.3     1  ZINC000154446008    0.0800
     13 C13       -14.5534   -2.1350   59.9865 C.3     1  ZINC000154446008    0.0900
     14 N14       -13.6870   -1.0481   60.4636 N.am    1  ZINC000154446008   -0.6100
     15 C15       -14.2131    0.0259   61.0854 C.2     1  ZINC000154446008    0.5500
     16 O16       -15.4148    0.1015   61.2561 O.2     1  ZINC000154446008   -0.5300
     17 C17       -13.3336    1.1063   61.5577 C.2     1  ZINC000154446008   -0.1500
     18 C18       -12.4901    0.8380   62.5308 C.2     1  ZINC000154446008   -0.1100
     19 C19       -11.5428    1.8446   63.1158 C.3     1  ZINC000154446008   -0.1000
     20 C20       -11.3956    3.0399   62.1719 C.3     1  ZINC000154446008   -0.1200
     21 C21       -12.7964    3.5226   61.7755 C.3     1  ZINC000154446008   -0.1200
     22 C22       -13.4464    2.4494   60.8973 C.3     1  ZINC000154446008   -0.0700
     23 C23       -12.2366   -1.1532   60.2511 C.3     1  ZINC000154446008    0.1000
     24 C24       -11.9743   -1.3706   58.7602 C.3     1  ZINC000154446008    0.1000
     25 H25       -10.7637   -3.7464   55.3055 H       1  ZINC000154446008    0.1800
     26 H26        -8.2259   -3.8825   55.4878 H       1  ZINC000154446008    0.1800
     27 H27       -14.6838   -1.5042   57.9256 H       1  ZINC000154446008    0.0900
     28 H28       -14.7770   -3.2689   58.1626 H       1  ZINC000154446008    0.0900
     29 H29       -15.5980   -1.8642   60.1400 H       1  ZINC000154446008    0.1100
     30 H30       -14.3262   -3.0505   60.5328 H       1  ZINC000154446008    0.0800
     31 H31       -12.4787   -0.1645   62.9323 H       1  ZINC000154446008    0.1100
     32 H32       -11.9279    2.1878   64.0759 H       1  ZINC000154446008    0.0900
     33 H33       -10.5682    1.3798   63.2648 H       1  ZINC000154446008    0.0800
     34 H34       -10.8613    3.8433   62.6789 H       1  ZINC000154446008    0.0700
     35 H35       -10.8467    2.7370   61.2802 H       1  ZINC000154446008    0.0700
     36 H36       -13.3966    3.6801   62.6715 H       1  ZINC000154446008    0.0700
     37 H37       -12.7177    4.4545   61.2155 H       1  ZINC000154446008    0.0700
     38 H38       -12.9480    2.4248   59.9283 H       1  ZINC000154446008    0.0800
     39 H39       -14.4998    2.6895   60.7534 H       1  ZINC000154446008    0.0700
     40 H40       -11.7512   -0.2341   60.5792 H       1  ZINC000154446008    0.1100
     41 H41       -11.8444   -1.9988   60.8162 H       1  ZINC000154446008    0.0800
     42 H42       -10.9294   -1.6412   58.6082 H       1  ZINC000154446008    0.1100
     43 H43       -12.2014   -0.4565   58.2117 H       1  ZINC000154446008    0.0800
@<TRIPOS>BOND
     1     1     2    2
     2     2     3    1
     3     2    11   am
     4     3    10    1
     5     3     4    2
     6     4     5    1
     7     4    25    1
     8     5     6    2
     9     5    26    1
    10     6     7    1
    11     6    10    1
    12     7     8    2
    13     7     9    2
    14    11    24    1
    15    11    12    1
    16    12    13    1
    17    12    27    1
    18    12    28    1
    19    13    14    1
    20    13    29    1
    21    13    30    1
    22    14    15   am
    23    14    23    1
    24    15    16    2
    25    15    17    1
    26    17    22    1
    27    17    18    2
    28    18    19    1
    29    18    31    1
    30    19    20    1
    31    19    32    1
    32    19    33    1
    33    20    21    1
    34    20    34    1
    35    20    35    1
    36    21    22    1
    37    21    36    1
    38    21    37    1
    39    22    38    1
    40    22    39    1
    41    23    24    1
    42    23    40    1
    43    23    41    1
    44    24    42    1
    45    24    43    1
@<TRIPOS>SUBSTRUCTURE
     1 ZINC000154446008        1 TEMP              0 ****  ****    0 ROOT


##########                                Name:    ZINC000840649129
##########                DOCK_Rotatable_Bonds:                   8
##########                         Heavy_Atoms:                  26
##########                    Molecular_Weight:             376.839
##########                DOCK_Rotatable_Bonds:                   8
##########                       Formal_Charge:          -0.0199998
##########                     HBond_Acceptors:                   7
##########                        HBond_Donors:                   3
##########                         Heavy_Atoms:                  26
##########                          Grid_Score:          -30.374790
##########                     Grid_vdw_energy:          -29.417137
##########                      Grid_es_energy:           -0.957653
##########           Internal_energy_repulsive:          175.415009

@<TRIPOS>MOLECULE
ZINC000840649129
 47 48 1 0 0
SMALL
USER_CHARGES


@<TRIPOS>ATOM
      1 C1        -10.3386   -1.0922   60.0345 C.3     1  ZINC000840649129    0.0200
      2 O2        -10.3997   -2.4839   59.7163 O.3     1  ZINC000840649129   -0.2900
      3 C3         -9.4613   -2.9621   58.8600 C.ar    1  ZINC000840649129    0.1400
      4 C4         -8.1611   -3.1644   59.2965 C.ar    1  ZINC000840649129   -0.1700
      5 C5         -7.2052   -3.6505   58.4273 C.ar    1  ZINC000840649129   -0.1200
      6 C6         -7.5379   -3.9414   57.1084 C.ar    1  ZINC000840649129    0.1700
      7 N7         -6.5619   -4.4340   56.2346 N.pl3   1  ZINC000840649129   -0.8800
      8 C8         -8.8321   -3.7454   56.6584 C.ar    1  ZINC000840649129   -0.1000
      9 C9         -9.8059   -3.2578   57.5338 C.ar    1  ZINC000840649129   -0.1200
     10 C10       -11.1866   -3.0467   57.0626 C.2     1  ZINC000840649129    0.5100
     11 O11       -11.5045   -3.3878   55.9404 O.2     1  ZINC000840649129   -0.4800
     12 O12       -12.0963   -2.4757   57.8763 O.3     1  ZINC000840649129   -0.3200
     13 C13       -13.4381   -2.3050   57.3481 C.3     1  ZINC000840649129    0.0800
     14 H14       -13.6434   -3.0876   56.6178 H       1  ZINC000840649129    0.1200
     15 C15       -13.5487   -0.9567   56.6840 C.2     1  ZINC000840649129    0.5200
     16 O16       -13.1460   -0.8042   55.5502 O.2     1  ZINC000840649129   -0.4900
     17 N17       -14.0953    0.0797   57.3501 N.am    1  ZINC000840649129   -0.6600
     18 C18       -14.1981    1.3321   56.7334 C.ar    1  ZINC000840649129    0.1600
     19 C19       -13.7417    1.5071   55.4341 C.ar    1  ZINC000840649129   -0.1400
     20 C20       -13.8449    2.7444   54.8279 C.ar    1  ZINC000840649129   -0.0900
     21 C21       -14.4019    3.8079   55.5133 C.ar    1  ZINC000840649129   -0.1300
     22 C22       -14.8573    3.6378   56.8081 C.ar    1  ZINC000840649129   -0.0900
     23 C23       -14.7625    2.4017   57.4184 C.ar    1  ZINC000840649129   -0.0700
     24 Cl24      -15.3348    2.1884   59.0435 Cl      1  ZINC000840649129   -0.0700
     25 C25       -14.4513   -2.3952   58.4909 C.3     1  ZINC000840649129   -0.1100
     26 C26       -14.8924   -3.8495   58.6676 C.3     1  ZINC000840649129   -0.1600
     27 C27       -13.8055   -1.8973   59.7856 C.3     1  ZINC000840649129   -0.1500
     28 H28       -11.1429   -0.8420   60.7264 H       1  ZINC000840649129    0.1000
     29 H29        -9.3779   -0.8671   60.4975 H       1  ZINC000840649129    0.0600
     30 H30       -10.4487   -0.5057   59.1222 H       1  ZINC000840649129    0.0600
     31 H31        -7.8953   -2.9407   60.3191 H       1  ZINC000840649129    0.1400
     32 H32        -6.1937   -3.8055   58.7730 H       1  ZINC000840649129    0.1300
     33 H33        -5.6546   -4.5722   56.5488 H       1  ZINC000840649129    0.4000
     34 H34        -6.7927   -4.6372   55.3146 H       1  ZINC000840649129    0.4000
     35 H35        -9.0894   -3.9721   55.6342 H       1  ZINC000840649129    0.1400
     36 H36       -14.4175   -0.0423   58.2569 H       1  ZINC000840649129    0.4200
     37 H37       -13.3061    0.6771   54.8978 H       1  ZINC000840649129    0.1700
     38 H38       -13.4896    2.8809   53.8171 H       1  ZINC000840649129    0.1300
     39 H39       -14.4812    4.7738   55.0368 H       1  ZINC000840649129    0.1300
     40 H40       -15.2917    4.4707   57.3411 H       1  ZINC000840649129    0.1400
     41 H41       -15.3188   -1.7782   58.2570 H       1  ZINC000840649129    0.0900
     42 H42       -14.0137   -4.4853   58.7754 H       1  ZINC000840649129    0.0700
     43 H43       -15.5142   -3.9349   59.5589 H       1  ZINC000840649129    0.0800
     44 H44       -15.4638   -4.1645   57.7945 H       1  ZINC000840649129    0.0600
     45 H45       -13.4912   -0.8612   59.6597 H       1  ZINC000840649129    0.0500
     46 H46       -14.5274   -1.9617   60.5998 H       1  ZINC000840649129    0.0600
     47 H47       -12.9379   -2.5143   60.0196 H       1  ZINC000840649129    0.0700
@<TRIPOS>BOND
     1     1     2    1
     2     1    28    1
     3     1    29    1
     4     1    30    1
     5     2     3    1
     6     3     9   ar
     7     3     4   ar
     8     4     5   ar
     9     4    31    1
    10     5     6   ar
    11     5    32    1
    12     6     7    1
    13     6     8   ar
    14     7    33    1
    15     7    34    1
    16     8     9   ar
    17     8    35    1
    18     9    10    1
    19    10    11    2
    20    10    12    1
    21    12    13    1
    22    13    14    1
    23    13    15    1
    24    13    25    1
    25    15    16    2
    26    15    17   am
    27    17    18    1
    28    17    36    1
    29    18    23   ar
    30    18    19   ar
    31    19    20   ar
    32    19    37    1
    33    20    21   ar
    34    20    38    1
    35    21    22   ar
    36    21    39    1
    37    22    23   ar
    38    22    40    1
    39    23    24    1
    40    25    26    1
    41    25    27    1
    42    25    41    1
    43    26    42    1
    44    26    43    1
    45    26    44    1
    46    27    45    1
    47    27    46    1
    48    27    47    1
@<TRIPOS>SUBSTRUCTURE
     1 ZINC000840649129        1 TEMP              0 ****  ****    0 ROOT


##########                                Name:    ZINC000668548901
##########                DOCK_Rotatable_Bonds:                   9
##########                         Heavy_Atoms:                  26
##########                    Molecular_Weight:             374.464
##########                DOCK_Rotatable_Bonds:                   9
##########                       Formal_Charge:         3.53903e-07
##########                     HBond_Acceptors:                   8
##########                        HBond_Donors:                   3
##########                         Heavy_Atoms:                  26
##########                          Grid_Score:          -30.364214
##########                     Grid_vdw_energy:          -29.780369
##########                      Grid_es_energy:           -0.583845
##########           Internal_energy_repulsive:           16.900064

@<TRIPOS>MOLECULE
ZINC000668548901
 48 50 1 0 0
SMALL
USER_CHARGES


@<TRIPOS>ATOM
      1 O1        -10.9030    1.7035   58.9678 O.2     1  ZINC000668548901   -0.5700
      2 C2        -10.1231    1.5174   59.8817 C.2     1  ZINC000668548901    0.7100
      3 N3        -10.0583    0.3099   60.4769 N.am    1  ZINC000668548901   -0.6800
      4 C4        -10.8903   -0.7252   60.0479 C.ar    1  ZINC000668548901    0.2200
      5 C5        -12.0850   -1.0050   60.7133 C.ar    1  ZINC000668548901   -0.1700
      6 C6        -12.8821   -2.0350   60.2618 C.ar    1  ZINC000668548901    0.1200
      7 N7        -12.5301   -2.7559   59.2134 N.ar    1  ZINC000668548901   -0.4300
      8 C8        -11.4044   -2.5241   58.5527 C.ar    1  ZINC000668548901    0.1100
      9 S9        -10.9896   -3.5207   57.1601 S.3     1  ZINC000668548901    0.0900
     10 C10        -9.2387   -3.6719   57.2883 C.ar    1  ZINC000668548901    0.0900
     11 C11        -8.4719   -3.8041   56.1351 C.ar    1  ZINC000668548901   -0.1500
     12 C12        -7.0984   -3.9215   56.2504 C.ar    1  ZINC000668548901   -0.0700
     13 C13        -6.5358   -3.9027   57.5198 C.ar    1  ZINC000668548901   -0.1700
     14 C14        -7.3572   -3.7684   58.6218 C.ar    1  ZINC000668548901    0.1000
     15 N15        -8.6639   -3.6533   58.4816 N.ar    1  ZINC000668548901   -0.4200
     16 C16       -10.5522   -1.4999   58.9432 C.ar    1  ZINC000668548901   -0.1800
     17 N17        -9.3196    2.5170   60.2960 N.am    1  ZINC000668548901   -0.7200
     18 C18        -9.3901    3.8294   59.6490 C.3     1  ZINC000668548901    0.1700
     19 H19       -10.3404    3.9249   59.1237 H       1  ZINC000668548901    0.1000
     20 C20        -8.2391    3.9684   58.6507 C.3     1  ZINC000668548901    0.0600
     21 O21        -8.2135    2.8270   57.7912 O.3     1  ZINC000668548901   -0.5700
     22 C22        -9.2810    4.9272   60.7093 C.3     1  ZINC000668548901   -0.1300
     23 H23        -9.2836    5.9033   60.2244 H       1  ZINC000668548901    0.1000
     24 C24        -7.9793    4.7503   61.4972 C.3     1  ZINC000668548901   -0.1200
     25 C25        -7.9185    5.8064   62.6050 C.3     1  ZINC000668548901   -0.1600
     26 C26        -9.1581    5.6744   63.4937 C.3     1  ZINC000668548901    0.0600
     27 O27       -10.3335    5.8182   62.6938 O.3     1  ZINC000668548901   -0.3800
     28 C28       -10.4687    4.8301   61.6703 C.3     1  ZINC000668548901    0.0700
     29 H29        -9.4332    0.1603   61.2034 H       1  ZINC000668548901    0.4100
     30 H30       -12.3813   -0.4213   61.5724 H       1  ZINC000668548901    0.1500
     31 H31       -13.8075   -2.2555   60.7731 H       1  ZINC000668548901    0.1600
     32 H32        -8.9425   -3.8153   55.1632 H       1  ZINC000668548901    0.1400
     33 H33        -6.4775   -4.0258   55.3729 H       1  ZINC000668548901    0.1400
     34 H34        -5.4668   -3.9925   57.6441 H       1  ZINC000668548901    0.1400
     35 H35        -6.9239   -3.7537   59.6109 H       1  ZINC000668548901    0.1600
     36 H36        -9.6358   -1.3134   58.4029 H       1  ZINC000668548901    0.1400
     37 H37        -8.6946    2.3673   61.0226 H       1  ZINC000668548901    0.4000
     38 H38        -8.3825    4.8693   58.0541 H       1  ZINC000668548901    0.0500
     39 H39        -7.2953    4.0372   59.1916 H       1  ZINC000668548901    0.0600
     40 H40        -8.1136    1.9858   58.2574 H       1  ZINC000668548901    0.3800
     41 H41        -7.9538    3.7548   61.9405 H       1  ZINC000668548901    0.0700
     42 H42        -7.1282    4.8746   60.8277 H       1  ZINC000668548901    0.0700
     43 H43        -7.0218    5.6531   63.2055 H       1  ZINC000668548901    0.0800
     44 H44        -7.8940    6.8007   62.1594 H       1  ZINC000668548901    0.0700
     45 H45        -9.1607    4.6943   63.9708 H       1  ZINC000668548901    0.0500
     46 H46        -9.1414    6.4510   64.2584 H       1  ZINC000668548901    0.1000
     47 H47       -11.3961    4.9986   61.1227 H       1  ZINC000668548901    0.1000
     48 H48       -10.4885    3.8386   62.1225 H       1  ZINC000668548901    0.0500
@<TRIPOS>BOND
     1     1     2    2
     2     2     3   am
     3     2    17   am
     4     3     4    1
     5     3    29    1
     6     4    16   ar
     7     4     5   ar
     8     5     6   ar
     9     5    30    1
    10     6     7   ar
    11     6    31    1
    12     7     8   ar
    13     8     9    1
    14     8    16   ar
    15     9    10    1
    16    10    15   ar
    17    10    11   ar
    18    11    12   ar
    19    11    32    1
    20    12    13   ar
    21    12    33    1
    22    13    14   ar
    23    13    34    1
    24    14    15   ar
    25    14    35    1
    26    16    36    1
    27    17    18    1
    28    17    37    1
    29    18    19    1
    30    18    20    1
    31    18    22    1
    32    20    21    1
    33    20    38    1
    34    20    39    1
    35    21    40    1
    36    22    23    1
    37    22    28    1
    38    22    24    1
    39    24    25    1
    40    24    41    1
    41    24    42    1
    42    25    26    1
    43    25    43    1
    44    25    44    1
    45    26    27    1
    46    26    45    1
    47    26    46    1
    48    27    28    1
    49    28    47    1
    50    28    48    1
@<TRIPOS>SUBSTRUCTURE
     1 ZINC000668548901        1 TEMP              0 ****  ****    0 ROOT


##########                                Name:    ZINC000065993627
##########                DOCK_Rotatable_Bonds:                   7
##########                         Heavy_Atoms:                  28
##########                    Molecular_Weight:             382.462
##########                DOCK_Rotatable_Bonds:                   7
##########                       Formal_Charge:          -0.0200002
##########                     HBond_Acceptors:                   7
##########                        HBond_Donors:                   2
##########                         Heavy_Atoms:                  28
##########                          Grid_Score:          -30.356585
##########                     Grid_vdw_energy:          -28.670790
##########                      Grid_es_energy:           -1.685794
##########           Internal_energy_repulsive:           61.333977

@<TRIPOS>MOLECULE
ZINC000065993627
 54 56 1 0 0
SMALL
USER_CHARGES


@<TRIPOS>ATOM
      1 C1        -12.1459   -3.0925   56.8064 C.3     1  ZINC000065993627   -0.1200
      2 C2        -10.9501   -3.2058   57.7165 C.ar    1  ZINC000065993627   -0.0700
      3 C3         -9.7079   -3.4995   57.1906 C.ar    1  ZINC000065993627   -0.1800
      4 C4         -8.6057   -3.6039   58.0295 C.ar    1  ZINC000065993627    0.2000
      5 N5         -7.3466   -3.9012   57.4968 N.pl3   1  ZINC000065993627   -0.6400
      6 C6         -6.1359   -3.4150   58.1631 C.3     1  ZINC000065993627    0.1000
      7 C7         -7.2389   -4.6989   56.2727 C.3     1  ZINC000065993627    0.0900
      8 C8         -8.7537   -3.4129   59.3969 C.ar    1  ZINC000065993627   -0.1800
      9 C9         -9.9965   -3.1192   59.9225 C.ar    1  ZINC000065993627   -0.0800
     10 C10       -11.0968   -3.0093   59.0832 C.ar    1  ZINC000065993627    0.1100
     11 N11       -12.3583   -2.7106   59.6170 N.am    1  ZINC000065993627   -0.6800
     12 C12       -12.7334   -1.4267   59.7821 C.2     1  ZINC000065993627    0.7000
     13 O13       -11.9777   -0.5273   59.4682 O.2     1  ZINC000065993627   -0.5700
     14 N14       -13.9461   -1.1396   60.2952 N.am    1  ZINC000065993627   -0.7400
     15 C15       -14.3546    0.2560   60.4730 C.3     1  ZINC000065993627    0.2100
     16 H16       -15.3202    0.2906   60.9773 H       1  ZINC000065993627    0.1000
     17 C17       -14.4689    0.9322   59.1053 C.3     1  ZINC000065993627   -0.1600
     18 C18       -13.3268    0.9780   61.3058 C.ar    1  ZINC000065993627   -0.1200
     19 C19       -12.4964    0.2631   62.1492 C.ar    1  ZINC000065993627   -0.0800
     20 C20       -11.5535    0.9219   62.9139 C.ar    1  ZINC000065993627   -0.1500
     21 C21       -11.4399    2.3036   62.8349 C.ar    1  ZINC000065993627    0.1800
     22 N22       -10.4853    2.9741   63.6079 N.am    1  ZINC000065993627   -0.5700
     23 C23        -9.5804    2.3468   64.5833 C.3     1  ZINC000065993627    0.0600
     24 C24        -8.7579    3.5279   65.1334 C.3     1  ZINC000065993627    0.0400
     25 O25        -9.2802    4.6849   64.4182 O.3     1  ZINC000065993627   -0.3200
     26 C26       -10.2426    4.2916   63.5763 C.2     1  ZINC000065993627    0.6400
     27 O27       -10.8477    5.0602   62.8554 O.2     1  ZINC000065993627   -0.5000
     28 C28       -12.2754    3.0187   61.9869 C.ar    1  ZINC000065993627   -0.1500
     29 C29       -13.2125    2.3534   61.2207 C.ar    1  ZINC000065993627   -0.0800
     30 H30       -12.2450   -2.0627   56.4631 H       1  ZINC000065993627    0.0700
     31 H31       -12.0126   -3.7504   55.9477 H       1  ZINC000065993627    0.0700
     32 H32       -13.0451   -3.3822   57.3501 H       1  ZINC000065993627    0.0600
     33 H33        -9.5931   -3.6484   56.1271 H       1  ZINC000065993627    0.1200
     34 H34        -5.8004   -4.1534   58.8912 H       1  ZINC000065993627    0.0500
     35 H35        -5.3531   -3.2538   57.4219 H       1  ZINC000065993627    0.0700
     36 H36        -6.3534   -2.4758   58.6718 H       1  ZINC000065993627    0.0700
     37 H37        -8.2357   -4.8922   55.8761 H       1  ZINC000065993627    0.0800
     38 H38        -6.6533   -4.1526   55.5334 H       1  ZINC000065993627    0.0500
     39 H39        -6.7477   -5.6456   56.4979 H       1  ZINC000065993627    0.0500
     40 H40        -7.8970   -3.4944   60.0494 H       1  ZINC000065993627    0.1300
     41 H41       -10.1116   -2.9706   60.9860 H       1  ZINC000065993627    0.1500
     42 H42       -12.9612   -3.4280   59.8673 H       1  ZINC000065993627    0.4000
     43 H43       -14.5485   -1.8570   60.5468 H       1  ZINC000065993627    0.4000
     44 H44       -15.2124    0.4100   58.5029 H       1  ZINC000065993627    0.0700
     45 H45       -14.7728    1.9706   59.2375 H       1  ZINC000065993627    0.0700
     46 H46       -13.5033    0.8976   58.6009 H       1  ZINC000065993627    0.0600
     47 H47       -12.5854   -0.8115   62.2105 H       1  ZINC000065993627    0.1300
     48 H48       -10.9054    0.3630   63.5726 H       1  ZINC000065993627    0.1600
     49 H49       -10.1489    1.8709   65.3823 H       1  ZINC000065993627    0.1000
     50 H50        -8.9299    1.6233   64.0918 H       1  ZINC000065993627    0.1000
     51 H51        -8.9175    3.6379   66.2061 H       1  ZINC000065993627    0.1100
     52 H52        -7.6988    3.3902   64.9159 H       1  ZINC000065993627    0.1100
     53 H53       -12.1897    4.0933   61.9235 H       1  ZINC000065993627    0.1300
     54 H54       -13.8622    2.9090   60.5608 H       1  ZINC000065993627    0.1300
@<TRIPOS>BOND
     1     1     2    1
     2     1    30    1
     3     1    31    1
     4     1    32    1
     5     2    10   ar
     6     2     3   ar
     7     3     4   ar
     8     3    33    1
     9     4     5    1
    10     4     8   ar
    11     5     6    1
    12     5     7    1
    13     6    34    1
    14     6    35    1
    15     6    36    1
    16     7    37    1
    17     7    38    1
    18     7    39    1
    19     8     9   ar
    20     8    40    1
    21     9    10   ar
    22     9    41    1
    23    10    11    1
    24    11    12   am
    25    11    42    1
    26    12    13    2
    27    12    14   am
    28    14    15    1
    29    14    43    1
    30    15    16    1
    31    15    17    1
    32    15    18    1
    33    17    44    1
    34    17    45    1
    35    17    46    1
    36    18    29   ar
    37    18    19   ar
    38    19    20   ar
    39    19    47    1
    40    20    21   ar
    41    20    48    1
    42    21    22    1
    43    21    28   ar
    44    22    26   am
    45    22    23    1
    46    23    24    1
    47    23    49    1
    48    23    50    1
    49    24    25    1
    50    24    51    1
    51    24    52    1
    52    25    26    1
    53    26    27    2
    54    28    29   ar
    55    28    53    1
    56    29    54    1
@<TRIPOS>SUBSTRUCTURE
     1 ZINC000065993627        1 TEMP              0 ****  ****    0 ROOT


##########                                Name:    ZINC000013809319
##########                DOCK_Rotatable_Bonds:                  10
##########                         Heavy_Atoms:                  30
##########                    Molecular_Weight:             407.469
##########                DOCK_Rotatable_Bonds:                  10
##########                       Formal_Charge:         -0.00999978
##########                     HBond_Acceptors:                   7
##########                        HBond_Donors:                   1
##########                         Heavy_Atoms:                  30
##########                          Grid_Score:          -30.352623
##########                     Grid_vdw_energy:          -28.067572
##########                      Grid_es_energy:           -2.285050
##########           Internal_energy_repulsive:           31.383667

@<TRIPOS>MOLECULE
ZINC000013809319
 55 57 1 0 0
SMALL
USER_CHARGES


@<TRIPOS>ATOM
      1 C1        -11.6709   -3.1732   57.6085 C.3     1  ZINC000013809319   -0.1500
      2 C2        -10.8767   -2.6968   58.8265 C.3     1  ZINC000013809319    0.0500
      3 O3        -11.5436   -1.5832   59.4241 O.3     1  ZINC000013809319   -0.3100
      4 C4        -10.9656   -1.0366   60.5246 C.ar    1  ZINC000013809319    0.1500
      5 C5        -11.7218   -0.2538   61.3880 C.ar    1  ZINC000013809319   -0.2200
      6 C6        -11.1386    0.3021   62.5058 C.ar    1  ZINC000013809319   -0.0300
      7 C7         -9.7866    0.0779   62.7703 C.ar    1  ZINC000013809319   -0.1100
      8 C8         -9.1569    0.6728   63.9703 C.2     1  ZINC000013809319    0.2300
      9 C9         -8.1385    0.0029   64.6288 C.2     1  ZINC000013809319   -0.2900
     10 C10        -7.5679    0.6043   65.7640 C.2     1  ZINC000013809319    0.5300
     11 O11        -6.6682    0.0510   66.3752 O.2     1  ZINC000013809319   -0.5400
     12 N12        -8.0342    1.8056   66.1646 N.am    1  ZINC000013809319   -0.5100
     13 C13        -7.4573    2.4549   67.3443 C.3     1  ZINC000013809319    0.0700
     14 C14        -6.3074    3.3329   66.9223 C.2     1  ZINC000013809319    0.5000
     15 O15        -5.2983    3.3750   67.5937 O.2     1  ZINC000013809319   -0.5200
     16 N16        -6.4005    4.0715   65.7987 N.am    1  ZINC000013809319   -0.7200
     17 C17        -5.2820    4.9237   65.3875 C.3     1  ZINC000013809319    0.1300
     18 C18        -5.8187    6.1370   64.6255 C.3     1  ZINC000013809319   -0.0800
     19 C19        -6.5700    5.6714   63.4049 C.ar    1  ZINC000013809319   -0.1200
     20 C20        -5.9047    5.5033   62.2061 C.ar    1  ZINC000013809319   -0.0800
     21 C21        -6.5938    5.0767   61.0856 C.ar    1  ZINC000013809319   -0.1500
     22 C22        -7.9494    4.8168   61.1621 C.ar    1  ZINC000013809319   -0.0800
     23 C23        -8.6194    4.9830   62.3590 C.ar    1  ZINC000013809319   -0.2100
     24 C24        -7.9295    5.4059   63.4858 C.ar    1  ZINC000013809319    0.1300
     25 O25        -8.5862    5.5701   64.6641 O.3     1  ZINC000013809319   -0.3100
     26 C26        -9.9874    5.2894   64.6706 C.3     1  ZINC000013809319    0.0300
     27 C27        -9.0282    2.4113   65.4843 C.2     1  ZINC000013809319    0.3900
     28 N28        -9.5651    1.8699   64.4262 N.2     1  ZINC000013809319   -0.5300
     29 C29        -9.0299   -0.7092   61.9006 C.ar    1  ZINC000013809319   -0.0500
     30 C30        -9.6208   -1.2663   60.7875 C.ar    1  ZINC000013809319   -0.1600
     31 H31       -12.6707   -3.4738   57.9217 H       1  ZINC000013809319    0.0700
     32 H32       -11.7455   -2.3626   56.8837 H       1  ZINC000013809319    0.0700
     33 H33       -11.1621   -4.0226   57.1526 H       1  ZINC000013809319    0.0800
     34 H34       -10.8021   -3.5074   59.5513 H       1  ZINC000013809319    0.0600
     35 H35        -9.8768   -2.3962   58.5134 H       1  ZINC000013809319    0.0600
     36 H36       -12.7678   -0.0804   61.1825 H       1  ZINC000013809319    0.1300
     37 H37       -11.7270    0.9109   63.1765 H       1  ZINC000013809319    0.1400
     38 H38        -7.7916   -0.9581   64.2785 H       1  ZINC000013809319    0.1600
     39 H39        -8.2184    3.0631   67.8330 H       1  ZINC000013809319    0.1300
     40 H40        -7.0983    1.6949   68.0384 H       1  ZINC000013809319    0.1300
     41 H41        -7.2081    4.0388   65.2623 H       1  ZINC000013809319    0.4000
     42 H42        -4.7383    5.2604   66.2701 H       1  ZINC000013809319    0.0700
     43 H43        -4.6115    4.3567   64.7418 H       1  ZINC000013809319    0.0700
     44 H44        -6.4897    6.7038   65.2709 H       1  ZINC000013809319    0.0800
     45 H45        -4.9866    6.7714   64.3199 H       1  ZINC000013809319    0.0800
     46 H46        -4.8458    5.7057   62.1438 H       1  ZINC000013809319    0.1300
     47 H47        -6.0719    4.9465   60.1490 H       1  ZINC000013809319    0.1300
     48 H48        -8.4854    4.4840   60.2856 H       1  ZINC000013809319    0.1300
     49 H49        -9.6785    4.7802   62.4182 H       1  ZINC000013809319    0.1300
     50 H50       -10.1510    4.2499   64.3865 H       1  ZINC000013809319    0.0600
     51 H51       -10.3875    5.4602   65.6700 H       1  ZINC000013809319    0.1000
     52 H52       -10.4923    5.9440   63.9603 H       1  ZINC000013809319    0.0600
     53 H53        -9.3867    3.3724   65.8222 H       1  ZINC000013809319    0.2000
     54 H54        -7.9836   -0.8848   62.1023 H       1  ZINC000013809319    0.1400
     55 H55        -9.0361   -1.8756   60.1144 H       1  ZINC000013809319    0.1400
@<TRIPOS>BOND
     1     1     2    1
     2     1    31    1
     3     1    32    1
     4     1    33    1
     5     2     3    1
     6     2    34    1
     7     2    35    1
     8     3     4    1
     9     4    30   ar
    10     4     5   ar
    11     5     6   ar
    12     5    36    1
    13     6     7   ar
    14     6    37    1
    15     7     8    1
    16     7    29   ar
    17     8    28    1
    18     8     9    2
    19     9    10    1
    20     9    38    1
    21    10    11    2
    22    10    12   am
    23    12    13    1
    24    12    27    1
    25    13    14    1
    26    13    39    1
    27    13    40    1
    28    14    15    2
    29    14    16   am
    30    16    17    1
    31    16    41    1
    32    17    18    1
    33    17    42    1
    34    17    43    1
    35    18    19    1
    36    18    44    1
    37    18    45    1
    38    19    24   ar
    39    19    20   ar
    40    20    21   ar
    41    20    46    1
    42    21    22   ar
    43    21    47    1
    44    22    23   ar
    45    22    48    1
    46    23    24   ar
    47    23    49    1
    48    24    25    1
    49    25    26    1
    50    26    50    1
    51    26    51    1
    52    26    52    1
    53    27    28    2
    54    27    53    1
    55    29    30   ar
    56    29    54    1
    57    30    55    1
@<TRIPOS>SUBSTRUCTURE
     1 ZINC000013809319        1 TEMP              0 ****  ****    0 ROOT


##########                                Name:    ZINC000185598309
##########                DOCK_Rotatable_Bonds:                  14
##########                         Heavy_Atoms:                  25
##########                    Molecular_Weight:             347.457
##########                DOCK_Rotatable_Bonds:                  14
##########                       Formal_Charge:               -0.02
##########                     HBond_Acceptors:                   6
##########                        HBond_Donors:                   4
##########                         Heavy_Atoms:                  25
##########                          Grid_Score:          -30.329523
##########                     Grid_vdw_energy:          -27.345917
##########                      Grid_es_energy:           -2.983607
##########           Internal_energy_repulsive:           16.494894

@<TRIPOS>MOLECULE
ZINC000185598309
 54 54 1 0 0
SMALL
USER_CHARGES


@<TRIPOS>ATOM
      1 C1        -15.5933    1.0731   60.4708 C.3     1  ZINC000185598309   -0.1300
      2 C2        -15.3923   -0.1822   59.6617 C.2     1  ZINC000185598309   -0.1600
      3 C3        -14.4728   -1.0471   60.0119 C.2     1  ZINC000185598309   -0.1600
      4 C4        -14.2705   -2.3015   59.2017 C.3     1  ZINC000185598309   -0.0900
      5 C5        -13.0480   -2.1330   58.2974 C.3     1  ZINC000185598309    0.1700
      6 H6        -13.0841   -1.1557   57.8160 H       1  ZINC000185598309    0.1000
      7 C7        -13.0491   -3.2283   57.2291 C.3     1  ZINC000185598309    0.0600
      8 O8        -12.0055   -2.9753   56.2864 O.3     1  ZINC000185598309   -0.5700
      9 N9        -11.8278   -2.2365   59.1015 N.am    1  ZINC000185598309   -0.7300
     10 C10       -11.1544   -1.1225   59.4508 C.2     1  ZINC000185598309    0.7000
     11 O11       -11.5605   -0.0315   59.0998 O.2     1  ZINC000185598309   -0.5900
     12 N12       -10.0310   -1.2179   60.1893 N.am    1  ZINC000185598309   -0.7400
     13 C13        -9.2981   -0.0070   60.5674 C.3     1  ZINC000185598309    0.1800
     14 C14        -9.2870    0.1251   62.0687 C.ar    1  ZINC000185598309   -0.0900
     15 C15        -8.6222   -0.8106   62.8393 C.ar    1  ZINC000185598309   -0.1100
     16 C16        -8.6101   -0.6931   64.2173 C.ar    1  ZINC000185598309   -0.1000
     17 C17        -9.2621    0.3600   64.8278 C.ar    1  ZINC000185598309   -0.1100
     18 C18        -9.9306    1.3019   64.0564 C.ar    1  ZINC000185598309    0.1400
     19 N19       -10.5919    2.3705   64.6717 N.am    1  ZINC000185598309   -0.6800
     20 C20       -11.9097    2.2826   64.9404 C.2     1  ZINC000185598309    0.5200
     21 O21       -12.5224    1.2774   64.6486 O.2     1  ZINC000185598309   -0.5200
     22 C22       -12.6219    3.4335   65.6031 C.3     1  ZINC000185598309   -0.1100
     23 H23       -12.0415    3.7750   66.4602 H       1  ZINC000185598309    0.1000
     24 C24       -14.0040    2.9755   66.0731 C.3     1  ZINC000185598309   -0.1500
     25 C25       -12.7777    4.5809   64.6029 C.3     1  ZINC000185598309   -0.1100
     26 C26       -13.2150    4.0204   63.2481 C.3     1  ZINC000185598309   -0.1600
     27 C27        -9.9365    1.1840   62.6728 C.ar    1  ZINC000185598309   -0.1300
     28 H28       -16.3955    1.6650   60.0301 H       1  ZINC000185598309    0.0600
     29 H29       -15.8581    0.8072   61.4942 H       1  ZINC000185598309    0.0600
     30 H30       -14.6717    1.6551   60.4734 H       1  ZINC000185598309    0.0600
     31 H31       -16.0063   -0.3689   58.7929 H       1  ZINC000185598309    0.1100
     32 H32       -13.8597   -0.8610   60.8814 H       1  ZINC000185598309    0.1100
     33 H33       -14.1126   -3.1459   59.8728 H       1  ZINC000185598309    0.0900
     34 H34       -15.1533   -2.4846   58.5890 H       1  ZINC000185598309    0.0800
     35 H35       -12.8850   -4.1968   57.7016 H       1  ZINC000185598309    0.0500
     36 H36       -14.0100   -3.2332   56.7147 H       1  ZINC000185598309    0.0500
     37 H37       -11.9445   -2.0520   56.0054 H       1  ZINC000185598309    0.3800
     38 H38       -11.5045   -3.1068   59.3826 H       1  ZINC000185598309    0.4000
     39 H39        -9.7076   -2.0882   60.4702 H       1  ZINC000185598309    0.4000
     40 H40        -8.2737   -0.0729   60.2009 H       1  ZINC000185598309    0.0700
     41 H41        -9.7853    0.8642   60.1296 H       1  ZINC000185598309    0.0800
     42 H42        -8.1114   -1.6351   62.3644 H       1  ZINC000185598309    0.1300
     43 H43        -8.0904   -1.4260   64.8167 H       1  ZINC000185598309    0.1300
     44 H44        -9.2526    0.4510   65.9038 H       1  ZINC000185598309    0.1300
     45 H45       -10.1019    3.1744   64.9050 H       1  ZINC000185598309    0.4100
     46 H46       -13.8930    2.1581   66.7857 H       1  ZINC000185598309    0.0600
     47 H47       -14.5192    3.8079   66.5524 H       1  ZINC000185598309    0.0800
     48 H48       -14.5844    2.6340   65.2161 H       1  ZINC000185598309    0.0600
     49 H49       -13.5303    5.2804   64.9668 H       1  ZINC000185598309    0.0700
     50 H50       -11.8246    5.0978   64.4918 H       1  ZINC000185598309    0.0700
     51 H51       -12.4624    3.3208   62.8843 H       1  ZINC000185598309    0.0600
     52 H52       -14.1681    3.5034   63.3592 H       1  ZINC000185598309    0.0600
     53 H53       -13.3258    4.8378   62.5355 H       1  ZINC000185598309    0.0600
     54 H54       -10.4553    1.9148   62.0702 H       1  ZINC000185598309    0.1300
@<TRIPOS>BOND
     1     1     2    1
     2     1    28    1
     3     1    29    1
     4     1    30    1
     5     2     3    2
     6     2    31    1
     7     3     4    1
     8     3    32    1
     9     4     5    1
    10     4    33    1
    11     4    34    1
    12     5     6    1
    13     5     7    1
    14     5     9    1
    15     7     8    1
    16     7    35    1
    17     7    36    1
    18     8    37    1
    19     9    10   am
    20     9    38    1
    21    10    11    2
    22    10    12   am
    23    12    13    1
    24    12    39    1
    25    13    14    1
    26    13    40    1
    27    13    41    1
    28    14    27   ar
    29    14    15   ar
    30    15    16   ar
    31    15    42    1
    32    16    17   ar
    33    16    43    1
    34    17    18   ar
    35    17    44    1
    36    18    19    1
    37    18    27   ar
    38    19    20   am
    39    19    45    1
    40    20    21    2
    41    20    22    1
    42    22    23    1
    43    22    24    1
    44    22    25    1
    45    24    46    1
    46    24    47    1
    47    24    48    1
    48    25    26    1
    49    25    49    1
    50    25    50    1
    51    26    51    1
    52    26    52    1
    53    26    53    1
    54    27    54    1
@<TRIPOS>SUBSTRUCTURE
     1 ZINC000185598309        1 TEMP              0 ****  ****    0 ROOT


##########                                Name:    ZINC001127302705
##########                DOCK_Rotatable_Bonds:                   9
##########                         Heavy_Atoms:                  28
##########                    Molecular_Weight:             398.892
##########                DOCK_Rotatable_Bonds:                   9
##########                       Formal_Charge:          -0.0200002
##########                     HBond_Acceptors:                   7
##########                        HBond_Donors:                   1
##########                         Heavy_Atoms:                  28
##########                          Grid_Score:          -30.314957
##########                     Grid_vdw_energy:          -30.473734
##########                      Grid_es_energy:            0.158777
##########           Internal_energy_repulsive:           28.248598

@<TRIPOS>MOLECULE
ZINC001127302705
 51 53 1 0 0
SMALL
USER_CHARGES


@<TRIPOS>ATOM
      1 C1        -13.0578    1.3457   61.8373 C.3     1  ZINC001127302705   -0.1500
      2 C2        -12.0029    0.2436   61.7198 C.3     1  ZINC001127302705   -0.1400
      3 C3        -10.7509    0.8059   61.0438 C.3     1  ZINC001127302705    0.1800
      4 C4        -10.0663    1.7998   61.9842 C.3     1  ZINC001127302705   -0.1600
      5 C5         -9.7875   -0.3383   60.7218 C.3     1  ZINC001127302705    0.0700
      6 O6        -10.4909   -1.3730   60.0315 O.3     1  ZINC001127302705   -0.2800
      7 C7         -9.7492   -2.2303   59.2856 C.ar    1  ZINC001127302705    0.3400
      8 N8         -8.4970   -2.4814   59.6279 N.ar    1  ZINC001127302705   -0.5300
      9 C9         -7.7408   -3.3085   58.9308 C.ar    1  ZINC001127302705    0.1400
     10 C10        -8.2348   -3.9456   57.8102 C.ar    1  ZINC001127302705   -0.2000
     11 C11        -9.5450   -3.7093   57.4167 C.ar    1  ZINC001127302705   -0.0300
     12 C12       -10.3148   -2.8408   58.1719 C.ar    1  ZINC001127302705   -0.1100
     13 Cl13      -11.9594   -2.5083   57.7265 Cl      1  ZINC001127302705   -0.0400
     14 N14       -11.1301    1.4884   59.8040 N.am    1  ZINC001127302705   -0.7100
     15 C15       -10.1836    2.0583   59.0319 C.2     1  ZINC001127302705    0.6200
     16 O16        -9.0152    2.0046   59.3635 O.2     1  ZINC001127302705   -0.5200
     17 C17       -10.5660    2.7478   57.7830 C.2     1  ZINC001127302705   -0.0200
     18 N18        -9.7806    3.4820   57.0202 N.2     1  ZINC001127302705   -0.2500
     19 N19       -10.4390    3.9310   56.0126 N.pl3   1  ZINC001127302705   -0.2800
     20 C20        -9.8810    4.7828   54.9594 C.3     1  ZINC001127302705    0.1600
     21 C21        -8.4025    4.5205   54.8320 C.ar    1  ZINC001127302705   -0.1200
     22 C22        -7.5079    5.1999   55.6375 C.ar    1  ZINC001127302705   -0.1000
     23 C23        -6.1517    4.9594   55.5205 C.ar    1  ZINC001127302705   -0.1200
     24 C24        -5.6901    4.0389   54.5982 C.ar    1  ZINC001127302705   -0.1100
     25 C25        -6.5847    3.3587   53.7933 C.ar    1  ZINC001127302705   -0.1200
     26 C26        -7.9413    3.5963   53.9133 C.ar    1  ZINC001127302705   -0.0800
     27 C27       -11.7192    3.5046   56.0636 C.2     1  ZINC001127302705   -0.0200
     28 C28       -11.8435    2.7410   57.1745 C.2     1  ZINC001127302705   -0.1800
     29 H29       -13.3145    1.7103   60.8427 H       1  ZINC001127302705    0.0500
     30 H30       -13.9497    0.9451   62.3189 H       1  ZINC001127302705    0.0600
     31 H31       -12.6604    2.1669   62.4339 H       1  ZINC001127302705    0.0500
     32 H32       -11.7461   -0.1209   62.7144 H       1  ZINC001127302705    0.0900
     33 H33       -12.4003   -0.5775   61.1232 H       1  ZINC001127302705    0.0800
     34 H34        -9.7842    1.2921   62.9066 H       1  ZINC001127302705    0.0700
     35 H35        -9.1743    2.2005   61.5025 H       1  ZINC001127302705    0.0500
     36 H36       -10.7526    2.6150   62.2135 H       1  ZINC001127302705    0.0800
     37 H37        -8.9790    0.0337   60.0926 H       1  ZINC001127302705    0.0800
     38 H38        -9.3734   -0.7360   61.6482 H       1  ZINC001127302705    0.0700
     39 H39        -6.7222   -3.4891   59.2410 H       1  ZINC001127302705    0.1700
     40 H40        -7.6086   -4.6203   57.2455 H       1  ZINC001127302705    0.1500
     41 H41        -9.9558   -4.1950   56.5439 H       1  ZINC001127302705    0.1500
     42 H42       -12.0621    1.5302   59.5389 H       1  ZINC001127302705    0.4100
     43 H43       -10.3726    4.5595   54.0127 H       1  ZINC001127302705    0.1000
     44 H44       -10.0434    5.8300   55.2150 H       1  ZINC001127302705    0.1100
     45 H45        -7.8685    5.9191   56.3580 H       1  ZINC001127302705    0.1200
     46 H46        -5.4527    5.4907   56.1494 H       1  ZINC001127302705    0.1300
     47 H47        -4.6305    3.8514   54.5063 H       1  ZINC001127302705    0.1200
     48 H48        -6.2241    2.6399   53.0725 H       1  ZINC001127302705    0.1300
     49 H49        -8.6402    3.0649   53.2844 H       1  ZINC001127302705    0.1300
     50 H50       -12.4977    3.7272   55.3489 H       1  ZINC001127302705    0.1800
     51 H51       -12.7323    2.2384   57.5262 H       1  ZINC001127302705    0.1600
@<TRIPOS>BOND
     1     1     2    1
     2     1    29    1
     3     1    30    1
     4     1    31    1
     5     2     3    1
     6     2    32    1
     7     2    33    1
     8     3     4    1
     9     3     5    1
    10     3    14    1
    11     4    34    1
    12     4    35    1
    13     4    36    1
    14     5     6    1
    15     5    37    1
    16     5    38    1
    17     6     7    1
    18     7    12   ar
    19     7     8   ar
    20     8     9   ar
    21     9    10   ar
    22     9    39    1
    23    10    11   ar
    24    10    40    1
    25    11    12   ar
    26    11    41    1
    27    12    13    1
    28    14    15   am
    29    14    42    1
    30    15    16    2
    31    15    17    1
    32    17    28    1
    33    17    18    2
    34    18    19    1
    35    19    20    1
    36    19    27    1
    37    20    21    1
    38    20    43    1
    39    20    44    1
    40    21    26   ar
    41    21    22   ar
    42    22    23   ar
    43    22    45    1
    44    23    24   ar
    45    23    46    1
    46    24    25   ar
    47    24    47    1
    48    25    26   ar
    49    25    48    1
    50    26    49    1
    51    27    28    2
    52    27    50    1
    53    28    51    1
@<TRIPOS>SUBSTRUCTURE
     1 ZINC001127302705        1 TEMP              0 ****  ****    0 ROOT


##########                                Name:    ZINC001077846158
##########                DOCK_Rotatable_Bonds:                   7
##########                         Heavy_Atoms:                  24
##########                    Molecular_Weight:             350.442
##########                DOCK_Rotatable_Bonds:                   7
##########                       Formal_Charge:          -0.0600002
##########                     HBond_Acceptors:                   8
##########                        HBond_Donors:                   2
##########                         Heavy_Atoms:                  24
##########                          Grid_Score:          -30.238655
##########                     Grid_vdw_energy:          -30.864433
##########                      Grid_es_energy:            0.625777
##########           Internal_energy_repulsive:            8.812304

@<TRIPOS>MOLECULE
ZINC001077846158
 46 48 1 0 0
SMALL
USER_CHARGES


@<TRIPOS>ATOM
      1 C1        -15.5284   -0.6467   56.6276 C.3     1  ZINC001077846158   -0.0700
      2 C2        -15.2929   -1.8227   57.5401 C.2     1  ZINC001077846158    0.0100
      3 C3        -14.4993   -1.8388   58.6237 C.2     1  ZINC001077846158   -0.0500
      4 C4        -13.6819   -0.6881   59.1519 C.3     1  ZINC001077846158    0.1300
      5 N5        -12.5256   -1.2087   59.8935 N.3     1  ZINC001077846158   -0.5100
      6 C6        -11.6664   -2.0476   59.0193 C.3     1  ZINC001077846158    0.0000
      7 C7        -10.3061   -2.0552   59.7613 C.3     1  ZINC001077846158    0.1000
      8 H8        -10.3124   -2.7850   60.5709 H       1  ZINC001077846158    0.0800
      9 O9         -9.2359   -2.3203   58.8524 O.3     1  ZINC001077846158   -0.5600
     10 C10       -10.2099   -0.6175   60.3214 C.3     1  ZINC001077846158    0.1400
     11 H11        -9.6111    0.0074   59.6588 H       1  ZINC001077846158    0.1100
     12 N12        -9.6290   -0.6336   61.6663 N.am    1  ZINC001077846158   -0.7000
     13 C13        -9.4883    0.5174   62.3533 C.2     1  ZINC001077846158    0.6000
     14 O14        -9.8424    1.5695   61.8563 O.2     1  ZINC001077846158   -0.5300
     15 C15        -8.9061    0.5011   63.7058 C.2     1  ZINC001077846158    0.0100
     16 C16        -8.5119   -0.6331   64.3274 C.2     1  ZINC001077846158   -0.2300
     17 S17        -7.8942   -0.2310   65.8698 S.3     1  ZINC001077846158    0.2300
     18 C18        -8.1975    1.4272   65.5961 C.2     1  ZINC001077846158    0.0300
     19 C19        -7.8972    2.5285   66.5801 C.3     1  ZINC001077846158   -0.0200
     20 C20        -6.4776    3.0486   66.3458 C.3     1  ZINC001077846158   -0.1500
     21 C21        -8.8971    3.6705   66.3883 C.3     1  ZINC001077846158   -0.1500
     22 N22        -8.7128    1.6060   64.4310 N.2     1  ZINC001077846158   -0.4500
     23 C23       -11.6618   -0.1068   60.3701 C.3     1  ZINC001077846158    0.0300
     24 O24       -14.5718   -3.0772   59.1499 O.3     1  ZINC001077846158   -0.2100
     25 C25       -15.4036   -3.7976   58.3860 C.2     1  ZINC001077846158    0.1800
     26 N26       -15.8438   -3.0435   57.4195 N.2     1  ZINC001077846158   -0.4900
     27 H27       -16.3742   -0.0655   56.9949 H       1  ZINC001077846158    0.0800
     28 H28       -14.6377   -0.0187   56.6069 H       1  ZINC001077846158    0.0700
     29 H29       -15.7437   -1.0052   55.6210 H       1  ZINC001077846158    0.0700
     30 H30       -13.3341   -0.0770   58.3190 H       1  ZINC001077846158    0.0600
     31 H31       -14.2963   -0.0808   59.8165 H       1  ZINC001077846158    0.1100
     32 H32       -12.0675   -3.0580   58.9411 H       1  ZINC001077846158    0.0900
     33 H33       -11.5639   -1.5957   58.0328 H       1  ZINC001077846158    0.0600
     34 H34        -9.3727   -1.9566   57.9669 H       1  ZINC001077846158    0.3900
     35 H35        -9.3456   -1.4725   62.0622 H       1  ZINC001077846158    0.4100
     36 H36        -8.5768   -1.6299   63.9167 H       1  ZINC001077846158    0.1900
     37 H37        -7.9791    2.1406   67.5956 H       1  ZINC001077846158    0.1000
     38 H38        -5.7653    2.2349   66.4825 H       1  ZINC001077846158    0.0600
     39 H39        -6.3957    3.4364   65.3304 H       1  ZINC001077846158    0.0600
     40 H40        -6.2604    3.8451   67.0576 H       1  ZINC001077846158    0.0700
     41 H41        -9.9084    3.2999   66.5552 H       1  ZINC001077846158    0.0600
     42 H42        -8.6798    4.4670   67.0999 H       1  ZINC001077846158    0.0700
     43 H43        -8.8152    4.0583   65.3728 H       1  ZINC001077846158    0.0600
     44 H44       -11.7726    0.7602   59.7188 H       1  ZINC001077846158    0.0600
     45 H45       -11.9283    0.1578   61.3935 H       1  ZINC001077846158    0.0900
     46 H46       -15.6690   -4.8320   58.5474 H       1  ZINC001077846158    0.2500
@<TRIPOS>BOND
     1     1     2    1
     2     1    27    1
     3     1    28    1
     4     1    29    1
     5     2    26    1
     6     2     3    2
     7     3     4    1
     8     3    24    1
     9     4     5    1
    10     4    30    1
    11     4    31    1
    12     5    23    1
    13     5     6    1
    14     6     7    1
    15     6    32    1
    16     6    33    1
    17     7     8    1
    18     7     9    1
    19     7    10    1
    20     9    34    1
    21    10    11    1
    22    10    12    1
    23    10    23    1
    24    12    13   am
    25    12    35    1
    26    13    14    2
    27    13    15    1
    28    15    22    1
    29    15    16    2
    30    16    17    1
    31    16    36    1
    32    17    18    1
    33    18    19    1
    34    18    22    2
    35    19    20    1
    36    19    21    1
    37    19    37    1
    38    20    38    1
    39    20    39    1
    40    20    40    1
    41    21    41    1
    42    21    42    1
    43    21    43    1
    44    23    44    1
    45    23    45    1
    46    24    25    1
    47    25    26    2
    48    25    46    1
@<TRIPOS>SUBSTRUCTURE
     1 ZINC001077846158        1 TEMP              0 ****  ****    0 ROOT


##########                                Name:    ZINC001045463759
##########                DOCK_Rotatable_Bonds:                   6
##########                         Heavy_Atoms:                  24
##########                    Molecular_Weight:             336.385
##########                DOCK_Rotatable_Bonds:                   6
##########                       Formal_Charge:          1.3411e-07
##########                     HBond_Acceptors:                   7
##########                        HBond_Donors:                   2
##########                         Heavy_Atoms:                  24
##########                          Grid_Score:          -30.224657
##########                     Grid_vdw_energy:          -30.973721
##########                      Grid_es_energy:            0.749063
##########           Internal_energy_repulsive:           11.976576

@<TRIPOS>MOLECULE
ZINC001045463759
 46 49 1 0 0
SMALL
USER_CHARGES


@<TRIPOS>ATOM
      1 O1        -14.4496   -1.5660   54.0751 O.2     1  ZINC001045463759   -0.5100
      2 C2        -13.5452   -0.8551   54.4594 C.2     1  ZINC001045463759    0.5400
      3 N3        -13.1615   -0.8918   55.7508 N.am    1  ZINC001045463759   -0.7200
      4 C4        -13.8408   -1.7859   56.6917 C.3     1  ZINC001045463759    0.1400
      5 H5        -14.2804   -2.6211   56.1464 H       1  ZINC001045463759    0.1000
      6 C6        -14.9436   -1.0161   57.4211 C.3     1  ZINC001045463759   -0.1300
      7 C7        -15.6532   -1.9499   58.4037 C.3     1  ZINC001045463759   -0.1200
      8 C8        -14.6427   -2.4813   59.4224 C.3     1  ZINC001045463759   -0.1200
      9 C9        -13.5399   -3.2511   58.6930 C.3     1  ZINC001045463759   -0.1300
     10 C10       -12.8305   -2.3174   57.7104 C.3     1  ZINC001045463759    0.1500
     11 H11       -12.3909   -1.4821   58.2557 H       1  ZINC001045463759    0.0900
     12 N12       -11.7744   -3.0544   57.0120 N.pl3   1  ZINC001045463759   -0.7100
     13 C13       -10.5310   -3.2096   57.6029 C.ar    1  ZINC001045463759    0.4400
     14 C14       -10.3073   -2.7727   58.9099 C.ar    1  ZINC001045463759   -0.3000
     15 C15        -9.0504   -2.9500   59.4543 C.ar    1  ZINC001045463759    0.1800
     16 N16        -8.1048   -3.5246   58.7244 N.ar    1  ZINC001045463759   -0.5600
     17 C17        -8.3476   -3.9262   57.4931 C.ar    1  ZINC001045463759    0.4000
     18 C18        -7.2405   -4.5743   56.7021 C.3     1  ZINC001045463759   -0.1100
     19 C19        -6.8198   -3.9016   55.3939 C.3     1  ZINC001045463759   -0.1500
     20 C20        -5.9048   -3.8328   56.6181 C.3     1  ZINC001045463759   -0.1500
     21 N21        -9.5329   -3.7821   56.9360 N.ar    1  ZINC001045463759   -0.5700
     22 C22       -12.8464    0.0646   53.4915 C.3     1  ZINC001045463759   -0.2000
     23 H23       -12.0948    0.7227   53.9277 H       1  ZINC001045463759    0.1500
     24 C24       -12.5907   -0.4602   52.0773 C.3     1  ZINC001045463759   -0.1500
     25 C25       -13.6629    0.6059   52.3162 C.3     1  ZINC001045463759    0.2300
     26 F26       -15.0010    0.2086   52.2220 F       1  ZINC001045463759   -0.1400
     27 F27       -13.3876    1.9073   51.8831 F       1  ZINC001045463759   -0.1500
     28 H28       -12.4356   -0.3262   56.0574 H       1  ZINC001045463759    0.4000
     29 H29       -14.5041   -0.1810   57.9664 H       1  ZINC001045463759    0.0700
     30 H30       -15.6635   -0.6376   56.6954 H       1  ZINC001045463759    0.0800
     31 H31       -16.4389   -1.4015   58.9234 H       1  ZINC001045463759    0.0700
     32 H32       -16.0927   -2.7850   57.8584 H       1  ZINC001045463759    0.0700
     33 H33       -14.2032   -1.6462   59.9677 H       1  ZINC001045463759    0.0700
     34 H34       -15.1482   -3.1465   60.1224 H       1  ZINC001045463759    0.0700
     35 H35       -12.8201   -3.6297   59.4187 H       1  ZINC001045463759    0.0700
     36 H36       -13.9795   -4.0862   58.1477 H       1  ZINC001045463759    0.0700
     37 H37       -11.9458   -3.4338   56.1359 H       1  ZINC001045463759    0.4100
     38 H38       -11.0972   -2.3073   59.4809 H       1  ZINC001045463759    0.1400
     39 H39        -8.8404   -2.6242   60.4623 H       1  ZINC001045463759    0.1700
     40 H40        -7.2101   -5.6631   56.7410 H       1  ZINC001045463759    0.1300
     41 H41        -6.5127   -4.5480   54.5717 H       1  ZINC001045463759    0.1000
     42 H42        -7.3439   -2.9904   55.1053 H       1  ZINC001045463759    0.1100
     43 H43        -5.8268   -2.8763   57.1350 H       1  ZINC001045463759    0.1000
     44 H44        -4.9957   -4.4338   56.6014 H       1  ZINC001045463759    0.1000
     45 H45       -11.6712   -0.1471   51.5829 H       1  ZINC001045463759    0.1400
     46 H46       -12.9280   -1.4708   51.8469 H       1  ZINC001045463759    0.1300
@<TRIPOS>BOND
     1     1     2    2
     2     2     3   am
     3     2    22    1
     4     3     4    1
     5     3    28    1
     6     4     5    1
     7     4    10    1
     8     4     6    1
     9     6     7    1
    10     6    29    1
    11     6    30    1
    12     7     8    1
    13     7    31    1
    14     7    32    1
    15     8     9    1
    16     8    33    1
    17     8    34    1
    18     9    10    1
    19     9    35    1
    20     9    36    1
    21    10    11    1
    22    10    12    1
    23    12    13    1
    24    12    37    1
    25    13    21   ar
    26    13    14   ar
    27    14    15   ar
    28    14    38    1
    29    15    16   ar
    30    15    39    1
    31    16    17   ar
    32    17    18    1
    33    17    21   ar
    34    18    20    1
    35    18    19    1
    36    18    40    1
    37    19    20    1
    38    19    41    1
    39    19    42    1
    40    20    43    1
    41    20    44    1
    42    22    23    1
    43    22    25    1
    44    22    24    1
    45    24    25    1
    46    24    45    1
    47    24    46    1
    48    25    26    1
    49    25    27    1
@<TRIPOS>SUBSTRUCTURE
     1 ZINC001045463759        1 TEMP              0 ****  ****    0 ROOT


##########                                Name:    ZINC000110375116
##########                DOCK_Rotatable_Bonds:                  10
##########                         Heavy_Atoms:                  27
##########                    Molecular_Weight:             396.511
##########                DOCK_Rotatable_Bonds:                  10
##########                       Formal_Charge:        -2.23517e-07
##########                     HBond_Acceptors:                   9
##########                        HBond_Donors:                   0
##########                         Heavy_Atoms:                  27
##########                          Grid_Score:          -30.214937
##########                     Grid_vdw_energy:          -27.303883
##########                      Grid_es_energy:           -2.911055
##########           Internal_energy_repulsive:           37.754513

@<TRIPOS>MOLECULE
ZINC000110375116
 55 56 1 0 0
SMALL
USER_CHARGES


@<TRIPOS>ATOM
      1 C1        -12.3781   -2.5181   56.1852 C.3     1  ZINC000110375116   -0.1700
      2 C2        -11.7821   -2.6827   57.5848 C.3     1  ZINC000110375116    0.1000
      3 N3        -12.5713   -1.9081   58.5457 N.am    1  ZINC000110375116   -0.6200
      4 C4        -13.9719   -1.5908   58.2565 C.3     1  ZINC000110375116    0.1100
      5 C5        -14.8701   -2.7020   58.8036 C.3     1  ZINC000110375116   -0.1700
      6 C6        -12.0087   -1.4873   59.6959 C.2     1  ZINC000110375116    0.5100
      7 O7        -10.8487   -1.7487   59.9347 O.2     1  ZINC000110375116   -0.5300
      8 C8        -12.8210   -0.6920   60.6852 C.3     1  ZINC000110375116   -0.1400
      9 C9        -12.6020    0.8024   60.4405 C.3     1  ZINC000110375116   -0.0900
     10 C10       -11.4083    1.2849   61.2672 C.3     1  ZINC000110375116   -0.1400
     11 C11       -11.8468    1.5269   62.6885 C.2     1  ZINC000110375116    0.5200
     12 O12       -13.0122    1.3908   62.9952 O.2     1  ZINC000110375116   -0.5300
     13 N13       -10.9437    1.8948   63.6190 N.am    1  ZINC000110375116   -0.6200
     14 C14        -9.5289    2.0679   63.2609 C.3     1  ZINC000110375116    0.0900
     15 C15        -9.0888    3.4789   63.6702 C.3     1  ZINC000110375116    0.1000
     16 N16        -9.5014    3.7146   65.0608 N.am    1  ZINC000110375116   -1.0000
     17 S17        -8.3919    4.1676   66.2038 S.o2    1  ZINC000110375116    2.7000
     18 O18        -7.7267    5.3116   65.6861 O.2     1  ZINC000110375116   -0.9400
     19 O19        -9.0749    4.1631   67.4499 O.2     1  ZINC000110375116   -0.9500
     20 C20        -7.1839    2.8880   66.2940 C.ar    1  ZINC000110375116   -0.7400
     21 C21        -5.8331    3.1986   66.3181 C.ar    1  ZINC000110375116    0.0200
     22 C22        -4.9180    2.1592   66.3900 C.ar    1  ZINC000110375116   -0.1900
     23 C23        -5.3797    0.8575   66.4351 C.ar    1  ZINC000110375116    0.1500
     24 N24        -6.6727    0.5992   66.4102 N.ar    1  ZINC000110375116   -0.4900
     25 C25        -7.5712    1.5622   66.3475 C.ar    1  ZINC000110375116    0.2000
     26 C26       -10.9161    3.5415   65.4190 C.3     1  ZINC000110375116    0.1000
     27 C27       -11.3572    2.1359   65.0085 C.3     1  ZINC000110375116    0.1000
     28 H28       -11.7910   -3.0945   55.4702 H       1  ZINC000110375116    0.0700
     29 H29       -13.4071   -2.8776   56.1840 H       1  ZINC000110375116    0.0600
     30 H30       -12.3608   -1.4650   55.9045 H       1  ZINC000110375116    0.0600
     31 H31       -11.7994   -3.7358   57.8655 H       1  ZINC000110375116    0.0800
     32 H32       -10.7531   -2.3232   57.5860 H       1  ZINC000110375116    0.0800
     33 H33       -14.2353   -0.6448   58.7295 H       1  ZINC000110375116    0.0800
     34 H34       -14.1107   -1.5089   57.1784 H       1  ZINC000110375116    0.0800
     35 H35       -15.9122   -2.4659   58.5884 H       1  ZINC000110375116    0.0700
     36 H36       -14.6067   -3.6480   58.3305 H       1  ZINC000110375116    0.0500
     37 H37       -14.7312   -2.7837   59.8816 H       1  ZINC000110375116    0.0600
     38 H38       -13.8776   -0.9293   60.5619 H       1  ZINC000110375116    0.0900
     39 H39       -12.5077   -0.9440   61.6984 H       1  ZINC000110375116    0.0900
     40 H40       -12.4033    0.9719   59.3823 H       1  ZINC000110375116    0.0800
     41 H41       -13.4948    1.3535   60.7355 H       1  ZINC000110375116    0.0800
     42 H42       -10.6258    0.5264   61.2525 H       1  ZINC000110375116    0.1000
     43 H43       -11.0236    2.2123   60.8428 H       1  ZINC000110375116    0.1000
     44 H44        -8.9251    1.3291   63.7878 H       1  ZINC000110375116    0.0800
     45 H45        -9.4062    1.9441   62.1848 H       1  ZINC000110375116    0.1000
     46 H46        -8.0049    3.5614   63.5911 H       1  ZINC000110375116    0.1100
     47 H47        -9.5625    4.2133   63.0186 H       1  ZINC000110375116    0.0800
     48 H48        -5.5012    4.2257   66.2813 H       1  ZINC000110375116    0.1500
     49 H49        -3.8579    2.3642   66.4103 H       1  ZINC000110375116    0.1500
     50 H50        -4.6736    0.0423   66.4907 H       1  ZINC000110375116    0.1700
     51 H51        -8.6216    1.3120   66.3290 H       1  ZINC000110375116    0.1700
     52 H52       -11.0389    3.6653   66.4950 H       1  ZINC000110375116    0.1100
     53 H53       -11.5199    4.2803   64.8920 H       1  ZINC000110375116    0.0800
     54 H54       -12.4413    2.0548   65.0880 H       1  ZINC000110375116    0.1100
     55 H55       -10.8841    1.3996   65.6583 H       1  ZINC000110375116    0.0800
@<TRIPOS>BOND
     1     1     2    1
     2     1    28    1
     3     1    29    1
     4     1    30    1
     5     2     3    1
     6     2    31    1
     7     2    32    1
     8     3     4    1
     9     3     6   am
    10     4     5    1
    11     4    33    1
    12     4    34    1
    13     5    35    1
    14     5    36    1
    15     5    37    1
    16     6     7    2
    17     6     8    1
    18     8     9    1
    19     8    38    1
    20     8    39    1
    21     9    10    1
    22     9    40    1
    23     9    41    1
    24    10    11    1
    25    10    42    1
    26    10    43    1
    27    11    12    2
    28    11    13   am
    29    13    27    1
    30    13    14    1
    31    14    15    1
    32    14    44    1
    33    14    45    1
    34    15    16    1
    35    15    46    1
    36    15    47    1
    37    16    17   am
    38    16    26    1
    39    17    18    2
    40    17    19    2
    41    17    20    1
    42    20    25   ar
    43    20    21   ar
    44    21    22   ar
    45    21    48    1
    46    22    23   ar
    47    22    49    1
    48    23    24   ar
    49    23    50    1
    50    24    25   ar
    51    25    51    1
    52    26    27    1
    53    26    52    1
    54    26    53    1
    55    27    54    1
    56    27    55    1
@<TRIPOS>SUBSTRUCTURE
     1 ZINC000110375116        1 TEMP              0 ****  ****    0 ROOT


##########                                Name:    ZINC001271977984
##########                DOCK_Rotatable_Bonds:                   7
##########                         Heavy_Atoms:                  24
##########                    Molecular_Weight:             328.371
##########                DOCK_Rotatable_Bonds:                   7
##########                       Formal_Charge:           0.0200001
##########                     HBond_Acceptors:                   7
##########                        HBond_Donors:                   0
##########                         Heavy_Atoms:                  24
##########                          Grid_Score:          -30.207458
##########                     Grid_vdw_energy:          -27.524849
##########                      Grid_es_energy:           -2.682610
##########           Internal_energy_repulsive:           54.504677

@<TRIPOS>MOLECULE
ZINC001271977984
 44 46 1 0 0
SMALL
USER_CHARGES


@<TRIPOS>ATOM
      1 C1        -13.5961   -3.7637   57.4180 C.3     1  ZINC001271977984   -0.1800
      2 C2        -12.8496   -3.1095   58.5824 C.3     1  ZINC001271977984    0.1700
      3 H3        -13.1422   -3.5887   59.5166 H       1  ZINC001271977984    0.1100
      4 C4        -11.3648   -3.2682   58.3798 C.2     1  ZINC001271977984    0.2700
      5 N5        -10.7986   -3.5825   57.2536 N.2     1  ZINC001271977984   -0.4700
      6 C6         -9.4519   -3.6364   57.4400 C.ar    1  ZINC001271977984    0.0200
      7 C7         -8.3714   -3.9189   56.6032 C.ar    1  ZINC001271977984   -0.0600
      8 C8         -7.0906   -3.8912   57.1086 C.ar    1  ZINC001271977984   -0.1200
      9 C9         -6.8687   -3.5846   58.4428 C.ar    1  ZINC001271977984   -0.0900
     10 C10        -7.9273   -3.3038   59.2816 C.ar    1  ZINC001271977984   -0.0900
     11 C11        -9.2230   -3.3266   58.7896 C.ar    1  ZINC001271977984    0.0100
     12 O12       -10.4378   -3.0995   59.3359 O.3     1  ZINC001271977984   -0.2100
     13 N13       -13.1862   -1.6806   58.6387 N.3     1  ZINC001271977984   -0.5300
     14 C14       -14.5514   -1.4418   58.1519 C.3     1  ZINC001271977984    0.0000
     15 C15       -13.0119   -1.1518   59.9980 C.3     1  ZINC001271977984    0.0400
     16 C16       -12.4459    0.2677   59.9244 C.3     1  ZINC001271977984    0.1200
     17 N17       -12.6404    0.9384   61.2123 N.am    1  ZINC001271977984   -0.6000
     18 C18       -11.6745    0.7385   62.2955 C.3     1  ZINC001271977984    0.0800
     19 C19       -13.7079    1.7393   61.4006 C.2     1  ZINC001271977984    0.6000
     20 O20       -14.5097    1.9052   60.5015 O.2     1  ZINC001271977984   -0.5300
     21 C21       -13.9036    2.4142   62.6965 C.2     1  ZINC001271977984   -0.0800
     22 C22       -14.9319    3.2408   63.0305 C.2     1  ZINC001271977984    0.0200
     23 O23       -14.7233    3.6327   64.2976 O.3     1  ZINC001271977984   -0.2000
     24 C24       -13.5922    3.0598   64.7328 C.2     1  ZINC001271977984    0.1800
     25 N25       -13.0933    2.3232   63.7858 N.2     1  ZINC001271977984   -0.4600
     26 H26       -14.6700   -3.6489   57.5645 H       1  ZINC001271977984    0.0800
     27 H27       -13.3035   -3.2844   56.4838 H       1  ZINC001271977984    0.0800
     28 H28       -13.3464   -4.8239   57.3762 H       1  ZINC001271977984    0.0700
     29 H29        -8.5389   -4.1585   55.5635 H       1  ZINC001271977984    0.1400
     30 H30        -6.2537   -4.1099   56.4620 H       1  ZINC001271977984    0.1400
     31 H31        -5.8599   -3.5660   58.8280 H       1  ZINC001271977984    0.1400
     32 H32        -7.7468   -3.0659   60.3195 H       1  ZINC001271977984    0.1400
     33 H33       -15.2596   -1.9923   58.7713 H       1  ZINC001271977984    0.0300
     34 H34       -14.7746   -0.3762   58.2044 H       1  ZINC001271977984    0.0700
     35 H35       -14.6331   -1.7797   57.1188 H       1  ZINC001271977984    0.1100
     36 H36       -13.9757   -1.1328   60.5068 H       1  ZINC001271977984    0.0500
     37 H37       -12.3220   -1.7899   60.5505 H       1  ZINC001271977984    0.0800
     38 H38       -11.3813    0.2229   59.6952 H       1  ZINC001271977984    0.0900
     39 H39       -12.9627    0.8248   59.1430 H       1  ZINC001271977984    0.0900
     40 H40       -10.9433    1.5468   62.2841 H       1  ZINC001271977984    0.0600
     41 H41       -12.1970    0.7347   63.2521 H       1  ZINC001271977984    0.0900
     42 H42       -11.1646   -0.2148   62.1563 H       1  ZINC001271977984    0.0700
     43 H43       -15.7581    3.5273   62.3969 H       1  ZINC001271977984    0.2300
     44 H44       -13.1649    3.1877   65.7164 H       1  ZINC001271977984    0.2600
@<TRIPOS>BOND
     1     1     2    1
     2     1    26    1
     3     1    27    1
     4     1    28    1
     5     2     3    1
     6     2     4    1
     7     2    13    1
     8     4    12    1
     9     4     5    2
    10     5     6    1
    11     6    11   ar
    12     6     7   ar
    13     7     8   ar
    14     7    29    1
    15     8     9   ar
    16     8    30    1
    17     9    10   ar
    18     9    31    1
    19    10    11   ar
    20    10    32    1
    21    11    12    1
    22    13    14    1
    23    13    15    1
    24    14    33    1
    25    14    34    1
    26    14    35    1
    27    15    16    1
    28    15    36    1
    29    15    37    1
    30    16    17    1
    31    16    38    1
    32    16    39    1
    33    17    18    1
    34    17    19   am
    35    18    40    1
    36    18    41    1
    37    18    42    1
    38    19    20    2
    39    19    21    1
    40    21    25    1
    41    21    22    2
    42    22    23    1
    43    22    43    1
    44    23    24    1
    45    24    25    2
    46    24    44    1
@<TRIPOS>SUBSTRUCTURE
     1 ZINC001271977984        1 TEMP              0 ****  ****    0 ROOT


##########                                Name:    ZINC000195331548
##########                DOCK_Rotatable_Bonds:                   7
##########                         Heavy_Atoms:                  26
##########                    Molecular_Weight:             378.539
##########                DOCK_Rotatable_Bonds:                   7
##########                       Formal_Charge:          -0.0100004
##########                     HBond_Acceptors:                   7
##########                        HBond_Donors:                   2
##########                         Heavy_Atoms:                  26
##########                          Grid_Score:          -30.194061
##########                     Grid_vdw_energy:          -25.742712
##########                      Grid_es_energy:           -4.451350
##########           Internal_energy_repulsive:           25.380560

@<TRIPOS>MOLECULE
ZINC000195331548
 56 58 1 0 0
SMALL
USER_CHARGES


@<TRIPOS>ATOM
      1 C1         -7.6528   -4.2243   56.8273 C.3     1  ZINC000195331548   -0.0800
      2 C2         -8.6668   -3.7748   57.8474 C.2     1  ZINC000195331548    0.0700
      3 C3         -8.3441   -3.4981   59.1144 C.2     1  ZINC000195331548   -0.2600
      4 S4         -9.8137   -3.0078   59.9537 S.3     1  ZINC000195331548    0.1100
      5 C5        -10.7175   -3.2317   58.5196 C.2     1  ZINC000195331548    0.0600
      6 C6        -12.2010   -3.0005   58.3901 C.3     1  ZINC000195331548   -0.0100
      7 H7        -12.7177   -3.4711   59.2266 H       1  ZINC000195331548    0.1100
      8 C8        -12.6998   -3.6059   57.0751 C.3     1  ZINC000195331548   -0.1200
      9 C9        -14.1953   -3.3144   56.9230 C.3     1  ZINC000195331548   -0.1100
     10 C10       -14.4225   -1.8017   56.9697 C.3     1  ZINC000195331548    0.0500
     11 N11       -13.9294   -1.2706   58.2469 N.3     1  ZINC000195331548   -0.5200
     12 C12       -14.2556    0.1551   58.3853 C.3     1  ZINC000195331548    0.0400
     13 C13       -14.0267    0.5867   59.8108 C.2     1  ZINC000195331548    0.5100
     14 O14       -14.8777    0.3831   60.6499 O.2     1  ZINC000195331548   -0.4400
     15 N15       -12.8757    1.1990   60.1529 N.am    1  ZINC000195331548   -0.7000
     16 C16       -12.6715    1.5864   61.4275 C.2     1  ZINC000195331548    0.6900
     17 O17       -13.5259    1.3850   62.2682 O.2     1  ZINC000195331548   -0.5300
     18 N18       -11.5200    2.1972   61.7700 N.am    1  ZINC000195331548   -0.7300
     19 C19       -11.2974    2.6168   63.1559 C.3     1  ZINC000195331548    0.1700
     20 H20       -11.8618    1.9691   63.8267 H       1  ZINC000195331548    0.0900
     21 C21       -11.7633    4.0634   63.3318 C.3     1  ZINC000195331548   -0.1300
     22 C22       -10.9711    4.9726   62.3902 C.3     1  ZINC000195331548   -0.1200
     23 C23        -9.4803    4.8732   62.7199 C.3     1  ZINC000195331548   -0.1200
     24 C24        -9.0143    3.4266   62.5439 C.3     1  ZINC000195331548   -0.1100
     25 C25        -9.8066    2.5175   63.4856 C.3     1  ZINC000195331548   -0.1000
     26 H26        -9.6410    2.8297   64.5166 H       1  ZINC000195331548    0.0900
     27 C27        -9.3407    1.0708   63.3095 C.3     1  ZINC000195331548   -0.1500
     28 C28       -12.4860   -1.4968   58.3942 C.3     1  ZINC000195331548    0.0600
     29 N29        -9.9446   -3.6220   57.5631 N.2     1  ZINC000195331548   -0.4700
     30 H30        -7.2337   -3.3535   56.3234 H       1  ZINC000195331548    0.0800
     31 H31        -6.8549   -4.7744   57.3262 H       1  ZINC000195331548    0.0800
     32 H32        -8.1363   -4.8704   56.0946 H       1  ZINC000195331548    0.0800
     33 H33        -7.3563   -3.5603   59.5466 H       1  ZINC000195331548    0.1800
     34 H34       -12.1557   -3.1633   56.2408 H       1  ZINC000195331548    0.0600
     35 H35       -12.5371   -4.6836   57.0854 H       1  ZINC000195331548    0.0700
     36 H36       -14.5472   -3.7059   55.9686 H       1  ZINC000195331548    0.0800
     37 H37       -14.7434   -3.7900   57.7364 H       1  ZINC000195331548    0.0800
     38 H38       -15.4879   -1.5913   56.8760 H       1  ZINC000195331548    0.0800
     39 H39       -13.8853   -1.3283   56.1479 H       1  ZINC000195331548    0.0400
     40 H40       -15.3006    0.3160   58.1203 H       1  ZINC000195331548    0.1200
     41 H41       -13.6183    0.7397   57.7218 H       1  ZINC000195331548    0.0700
     42 H42       -12.1944    1.3608   59.4817 H       1  ZINC000195331548    0.4100
     43 H43       -10.8386    2.3591   61.0988 H       1  ZINC000195331548    0.4000
     44 H44       -11.5977    4.3756   64.3630 H       1  ZINC000195331548    0.0700
     45 H45       -12.8254    4.1343   63.0970 H       1  ZINC000195331548    0.0700
     46 H46       -11.3030    6.0033   62.5157 H       1  ZINC000195331548    0.0600
     47 H47       -11.1367    4.6605   61.3592 H       1  ZINC000195331548    0.0600
     48 H48        -8.9159    5.5209   62.0491 H       1  ZINC000195331548    0.0600
     49 H49        -9.3147    5.1854   63.7511 H       1  ZINC000195331548    0.0600
     50 H50        -9.1801    3.1145   61.5128 H       1  ZINC000195331548    0.0600
     51 H51        -7.9523    3.3558   62.7788 H       1  ZINC000195331548    0.0700
     52 H52        -9.5064    0.7586   62.2784 H       1  ZINC000195331548    0.0500
     53 H53        -8.2786    1.0000   63.5444 H       1  ZINC000195331548    0.0600
     54 H54        -9.9051    0.4231   63.9803 H       1  ZINC000195331548    0.0600
     55 H55       -11.9580   -1.0248   57.5657 H       1  ZINC000195331548    0.0400
     56 H56       -12.1449   -1.0652   59.3353 H       1  ZINC000195331548    0.0900
@<TRIPOS>BOND
     1     1     2    1
     2     1    30    1
     3     1    31    1
     4     1    32    1
     5     2    29    1
     6     2     3    2
     7     3     4    1
     8     3    33    1
     9     4     5    1
    10     5     6    1
    11     5    29    2
    12     6     7    1
    13     6    28    1
    14     6     8    1
    15     8     9    1
    16     8    34    1
    17     8    35    1
    18     9    10    1
    19     9    36    1
    20     9    37    1
    21    10    11    1
    22    10    38    1
    23    10    39    1
    24    11    12    1
    25    11    28    1
    26    12    13    1
    27    12    40    1
    28    12    41    1
    29    13    14    2
    30    13    15   am
    31    15    16   am
    32    15    42    1
    33    16    17    2
    34    16    18   am
    35    18    19    1
    36    18    43    1
    37    19    20    1
    38    19    25    1
    39    19    21    1
    40    21    22    1
    41    21    44    1
    42    21    45    1
    43    22    23    1
    44    22    46    1
    45    22    47    1
    46    23    24    1
    47    23    48    1
    48    23    49    1
    49    24    25    1
    50    24    50    1
    51    24    51    1
    52    25    26    1
    53    25    27    1
    54    27    52    1
    55    27    53    1
    56    27    54    1
    57    28    55    1
    58    28    56    1
@<TRIPOS>SUBSTRUCTURE
     1 ZINC000195331548        1 TEMP              0 ****  ****    0 ROOT


##########                                Name:    ZINC001018437438
##########                DOCK_Rotatable_Bonds:                   8
##########                         Heavy_Atoms:                  24
##########                    Molecular_Weight:              333.39
##########                DOCK_Rotatable_Bonds:                   8
##########                       Formal_Charge:        -4.17233e-07
##########                     HBond_Acceptors:                   8
##########                        HBond_Donors:                   4
##########                         Heavy_Atoms:                  24
##########                          Grid_Score:          -30.178486
##########                     Grid_vdw_energy:          -26.995939
##########                      Grid_es_energy:           -3.182547
##########           Internal_energy_repulsive:           90.044502

@<TRIPOS>MOLECULE
ZINC001018437438
 47 49 1 0 0
SMALL
USER_CHARGES


@<TRIPOS>ATOM
      1 C1        -10.1296    3.3650   64.4062 C.3     1  ZINC001018437438   -0.1400
      2 C2         -9.4869    2.3563   63.4522 C.3     1  ZINC001018437438    0.1400
      3 H3         -8.4703    2.6719   63.2173 H       1  ZINC001018437438    0.0700
      4 C4         -9.4559    0.9737   64.1112 C.3     1  ZINC001018437438   -0.1300
      5 C5         -8.9411   -0.0563   63.1031 C.3     1  ZINC001018437438   -0.1300
      6 C6         -9.8881   -0.1147   61.9023 C.3     1  ZINC001018437438    0.1300
      7 H7        -10.8899   -0.3782   62.2415 H       1  ZINC001018437438    0.1000
      8 N8         -9.4121   -1.1237   60.9528 N.am    1  ZINC001018437438   -0.7200
      9 C9        -10.2122   -1.5354   59.9495 C.2     1  ZINC001018437438    0.6000
     10 O10       -11.3290   -1.0681   59.8314 O.2     1  ZINC001018437438   -0.5100
     11 C11        -9.7347   -2.5503   58.9968 C.2     1  ZINC001018437438   -0.0400
     12 C12        -8.4180   -2.8633   58.7070 C.2     1  ZINC001018437438   -0.1400
     13 C13        -8.4812   -3.8796   57.7509 C.2     1  ZINC001018437438    0.0600
     14 C14        -7.3045   -4.5679   57.1086 C.3     1  ZINC001018437438   -0.0800
     15 C15        -6.7298   -3.9440   55.8352 C.3     1  ZINC001018437438   -0.1700
     16 C16        -5.9552   -3.8476   57.1511 C.3     1  ZINC001018437438   -0.1600
     17 N17        -9.7436   -4.1285   57.5124 N.2     1  ZINC001018437438   -0.2600
     18 N18       -10.5022   -3.3761   58.2255 N.pl3   1  ZINC001018437438   -0.3800
     19 C19        -9.9240    1.2555   61.2182 C.3     1  ZINC001018437438    0.1000
     20 N20       -10.2759    2.2761   62.2154 N.am    1  ZINC001018437438   -0.6100
     21 C21       -11.3057    3.1188   62.0015 C.2     1  ZINC001018437438    0.5200
     22 O22       -11.5891    3.9537   62.8343 O.2     1  ZINC001018437438   -0.4800
     23 C23       -12.1051    3.0235   60.7275 C.3     1  ZINC001018437438   -0.1700
     24 C24       -13.2720    3.9749   60.7945 C.2     1  ZINC001018437438    0.5200
     25 N25       -13.3959    4.9549   59.8775 N.am    1  ZINC001018437438   -0.8600
     26 O26       -14.0995    3.8587   61.6734 O.2     1  ZINC001018437438   -0.5000
     27 H27       -11.1763    3.1031   64.5607 H       1  ZINC001018437438    0.0700
     28 H28        -9.6056    3.3462   65.3617 H       1  ZINC001018437438    0.0500
     29 H29       -10.0648    4.3644   63.9759 H       1  ZINC001018437438    0.0800
     30 H30        -8.7938    0.9981   64.9768 H       1  ZINC001018437438    0.0900
     31 H31       -10.4617    0.6999   64.4297 H       1  ZINC001018437438    0.0700
     32 H32        -7.9451    0.2315   62.7665 H       1  ZINC001018437438    0.0700
     33 H33        -8.8947   -1.0367   63.5771 H       1  ZINC001018437438    0.0800
     34 H34        -8.5211   -1.4955   61.0463 H       1  ZINC001018437438    0.4000
     35 H35        -7.5304   -2.4167   59.1301 H       1  ZINC001018437438    0.1700
     36 H36        -7.2970   -5.6552   57.1844 H       1  ZINC001018437438    0.1200
     37 H37        -6.3443   -4.6209   55.0728 H       1  ZINC001018437438    0.1000
     38 H38        -7.2030   -3.0357   55.4620 H       1  ZINC001018437438    0.1000
     39 H39        -5.9187   -2.8759   57.6437 H       1  ZINC001018437438    0.1000
     40 H40        -5.0603   -4.4611   57.2545 H       1  ZINC001018437438    0.1000
     41 H41       -11.4720   -3.3879   58.2131 H       1  ZINC001018437438    0.4400
     42 H42        -8.9433    1.4802   60.7988 H       1  ZINC001018437438    0.0700
     43 H43       -10.6703    1.2479   60.4239 H       1  ZINC001018437438    0.0900
     44 H44       -11.4712    3.2852   59.8804 H       1  ZINC001018437438    0.1200
     45 H45       -12.4733    2.0050   60.6049 H       1  ZINC001018437438    0.1200
     46 H46       -14.1462    5.5680   59.9210 H       1  ZINC001018437438    0.4000
     47 H47       -12.7346    5.0469   59.1738 H       1  ZINC001018437438    0.4000
@<TRIPOS>BOND
     1     1     2    1
     2     1    27    1
     3     1    28    1
     4     1    29    1
     5     2     3    1
     6     2    20    1
     7     2     4    1
     8     4     5    1
     9     4    30    1
    10     4    31    1
    11     5     6    1
    12     5    32    1
    13     5    33    1
    14     6     7    1
    15     6     8    1
    16     6    19    1
    17     8     9   am
    18     8    34    1
    19     9    10    2
    20     9    11    1
    21    11    18    1
    22    11    12    2
    23    12    13    1
    24    12    35    1
    25    13    14    1
    26    13    17    2
    27    14    16    1
    28    14    15    1
    29    14    36    1
    30    15    16    1
    31    15    37    1
    32    15    38    1
    33    16    39    1
    34    16    40    1
    35    17    18    1
    36    18    41    1
    37    19    20    1
    38    19    42    1
    39    19    43    1
    40    20    21   am
    41    21    22    2
    42    21    23    1
    43    23    24    1
    44    23    44    1
    45    23    45    1
    46    24    25   am
    47    24    26    2
    48    25    46    1
    49    25    47    1
@<TRIPOS>SUBSTRUCTURE
     1 ZINC001018437438        1 TEMP              0 ****  ****    0 ROOT


##########                                Name:    ZINC001220171460
##########                DOCK_Rotatable_Bonds:                  10
##########                         Heavy_Atoms:                  25
##########                    Molecular_Weight:             383.773
##########                DOCK_Rotatable_Bonds:                  10
##########                       Formal_Charge:           0.0199996
##########                     HBond_Acceptors:                  10
##########                        HBond_Donors:                   3
##########                         Heavy_Atoms:                  25
##########                          Grid_Score:          -30.129070
##########                     Grid_vdw_energy:          -30.281528
##########                      Grid_es_energy:            0.152459
##########           Internal_energy_repulsive:            7.561533

@<TRIPOS>MOLECULE
ZINC001220171460
 43 44 1 0 0
SMALL
USER_CHARGES


@<TRIPOS>ATOM
      1 C1         -9.0325   -3.3419   58.3381 C.3     1  ZINC001220171460    0.0200
      2 O2         -9.8825   -2.2024   58.4826 O.3     1  ZINC001220171460   -0.3100
      3 C3        -11.2018   -2.4413   58.7120 C.ar    1  ZINC001220171460    0.1000
      4 C4        -11.9246   -3.2369   57.8389 C.ar    1  ZINC001220171460   -0.1500
      5 C5        -13.2668   -3.4796   58.0728 C.ar    1  ZINC001220171460   -0.0600
      6 Cl6       -14.1705   -4.4778   56.9772 Cl      1  ZINC001220171460   -0.0400
      7 C7        -13.8905   -2.9277   59.1798 C.ar    1  ZINC001220171460    0.1000
      8 F8        -15.2009   -3.1673   59.4049 F       1  ZINC001220171460   -0.1200
      9 C9        -13.1731   -2.1317   60.0558 C.ar    1  ZINC001220171460   -0.1200
     10 C10       -11.8265   -1.8904   59.8286 C.ar    1  ZINC001220171460    0.1800
     11 N11       -11.0980   -1.0844   60.7148 N.am    1  ZINC001220171460   -0.6700
     12 C12       -11.2930    0.2491   60.7283 C.2     1  ZINC001220171460    0.7100
     13 O13       -12.1008    0.7531   59.9721 O.2     1  ZINC001220171460   -0.5700
     14 N14       -10.5927    1.0240   61.5802 N.am    1  ZINC001220171460   -0.7400
     15 C15       -10.8035    2.4737   61.5938 C.3     1  ZINC001220171460    0.1400
     16 C16        -9.7862    3.1282   62.5305 C.3     1  ZINC001220171460   -0.1400
     17 C17        -9.9845    2.5955   63.9510 C.3     1  ZINC001220171460    0.0500
     18 H18       -10.7400    1.8099   63.9423 H       1  ZINC001220171460    0.1000
     19 N19        -8.7157    2.0492   64.4508 N.3     1  ZINC001220171460   -0.6500
     20 C20        -8.9070    0.7073   65.0170 C.3     1  ZINC001220171460    0.0100
     21 C21        -8.2893   -0.4722   64.2631 C.3     1  ZINC001220171460   -0.2000
     22 C22        -7.6758   -0.0025   65.5838 C.3     1  ZINC001220171460   -0.1600
     23 C23       -10.4439    3.7346   64.8634 C.3     1  ZINC001220171460    0.4600
     24 F24        -9.4695    4.7381   64.8832 F       1  ZINC001220171460   -0.1800
     25 F25       -11.6467    4.2620   64.3813 F       1  ZINC001220171460   -0.1800
     26 F26       -10.6358    3.2451   66.1599 F       1  ZINC001220171460   -0.1700
     27 H27        -9.0679   -3.9395   59.2490 H       1  ZINC001220171460    0.0600
     28 H28        -9.3720   -3.9440   57.4953 H       1  ZINC001220171460    0.0600
     29 H29        -8.0091   -3.0116   58.1597 H       1  ZINC001220171460    0.1100
     30 H30       -11.4407   -3.6679   56.9749 H       1  ZINC001220171460    0.1500
     31 H31       -13.6608   -1.7019   60.9183 H       1  ZINC001220171460    0.1800
     32 H32       -10.4536   -1.4865   61.3181 H       1  ZINC001220171460    0.4200
     33 H33        -9.9492    0.6217   62.1844 H       1  ZINC001220171460    0.4000
     34 H34       -10.6761    2.8688   60.5859 H       1  ZINC001220171460    0.0800
     35 H35       -11.8125    2.6909   61.9443 H       1  ZINC001220171460    0.0700
     36 H36        -8.7770    2.8933   62.1921 H       1  ZINC001220171460    0.1000
     37 H37        -9.9292    4.2087   62.5244 H       1  ZINC001220171460    0.1000
     38 H38        -8.0155    2.0387   63.7244 H       1  ZINC001220171460    0.3600
     39 H39        -9.8599    0.5403   65.5193 H       1  ZINC001220171460    0.1200
     40 H40        -8.8357   -1.4153   64.2694 H       1  ZINC001220171460    0.1000
     41 H41        -7.7408   -0.2523   63.3471 H       1  ZINC001220171460    0.1000
     42 H42        -6.7239    0.5263   65.5366 H       1  ZINC001220171460    0.1000
     43 H43        -7.8188   -0.6366   66.4587 H       1  ZINC001220171460    0.1000
@<TRIPOS>BOND
     1     1     2    1
     2     1    27    1
     3     1    28    1
     4     1    29    1
     5     2     3    1
     6     3    10   ar
     7     3     4   ar
     8     4     5   ar
     9     4    30    1
    10     5     6    1
    11     5     7   ar
    12     7     8    1
    13     7     9   ar
    14     9    10   ar
    15     9    31    1
    16    10    11    1
    17    11    12   am
    18    11    32    1
    19    12    13    2
    20    12    14   am
    21    14    15    1
    22    14    33    1
    23    15    16    1
    24    15    34    1
    25    15    35    1
    26    16    17    1
    27    16    36    1
    28    16    37    1
    29    17    18    1
    30    17    19    1
    31    17    23    1
    32    19    20    1
    33    19    38    1
    34    20    22    1
    35    20    21    1
    36    20    39    1
    37    21    22    1
    38    21    40    1
    39    21    41    1
    40    22    42    1
    41    22    43    1
    42    23    24    1
    43    23    25    1
    44    23    26    1
@<TRIPOS>SUBSTRUCTURE
     1 ZINC001220171460        1 TEMP              0 ****  ****    0 ROOT


##########                                Name:    ZINC001141221454
##########                DOCK_Rotatable_Bonds:                   7
##########                         Heavy_Atoms:                  27
##########                    Molecular_Weight:             369.439
##########                DOCK_Rotatable_Bonds:                   7
##########                       Formal_Charge:          0.00999935
##########                     HBond_Acceptors:                   6
##########                        HBond_Donors:                   1
##########                         Heavy_Atoms:                  27
##########                          Grid_Score:          -30.125235
##########                     Grid_vdw_energy:          -29.692347
##########                      Grid_es_energy:           -0.432888
##########           Internal_energy_repulsive:           44.821438

@<TRIPOS>MOLECULE
ZINC001141221454
 51 54 1 0 0
SMALL
USER_CHARGES


@<TRIPOS>ATOM
      1 C1         -7.0380   -0.1253   66.1059 C.3     1  ZINC001141221454    0.0300
      2 O2         -6.6211    1.2344   66.2450 O.3     1  ZINC001141221454   -0.3100
      3 C3         -7.5285    2.1942   65.9226 C.ar    1  ZINC001141221454    0.0900
      4 C4         -7.1730    3.5328   65.9785 C.ar    1  ZINC001141221454   -0.1800
      5 C5         -8.0970    4.5069   65.6498 C.ar    1  ZINC001141221454   -0.0900
      6 C6         -9.3753    4.1482   65.2654 C.ar    1  ZINC001141221454   -0.1200
      7 C7         -9.7343    2.8138   65.2087 C.ar    1  ZINC001141221454   -0.0800
      8 C8        -11.1291    2.4263   64.7896 C.3     1  ZINC001141221454    0.0900
      9 N9        -11.0577    1.4159   63.7258 N.3     1  ZINC001141221454   -0.5100
     10 C10       -12.3701    1.2654   63.0453 C.3     1  ZINC001141221454    0.0300
     11 C11       -11.9963    0.6201   61.6855 C.3     1  ZINC001141221454   -0.0700
     12 C12       -10.6606    1.3046   61.3415 C.3     1  ZINC001141221454   -0.1000
     13 C13       -10.4847    2.0840   60.0447 C.3     1  ZINC001141221454   -0.1400
     14 C14        -9.7507    0.7557   60.2505 C.3     1  ZINC001141221454   -0.1800
     15 H15        -8.6754    0.7963   60.4240 H       1  ZINC001141221454    0.1300
     16 C16       -10.2389   -0.4377   59.4706 C.2     1  ZINC001141221454    0.5500
     17 O17       -11.3438   -0.4246   58.9705 O.2     1  ZINC001141221454   -0.5300
     18 N18        -9.4478   -1.5195   59.3286 N.am    1  ZINC001141221454   -0.7300
     19 C19        -9.9231   -2.6804   58.5719 C.3     1  ZINC001141221454    0.1700
     20 C20        -8.7671   -3.3084   57.8367 C.ar    1  ZINC001141221454   -0.1600
     21 C21        -7.4829   -3.2342   58.3535 C.ar    1  ZINC001141221454   -0.0600
     22 C22        -6.4502   -3.8270   57.6429 C.ar    1  ZINC001141221454   -0.1700
     23 C23        -6.7333   -4.4674   56.4517 C.ar    1  ZINC001141221454    0.1100
     24 N24        -7.9678   -4.5184   55.9899 N.ar    1  ZINC001141221454   -0.4800
     25 C25        -8.9748   -3.9707   56.6413 C.ar    1  ZINC001141221454    0.1200
     26 C26       -10.0994    1.8214   62.6720 C.3     1  ZINC001141221454    0.0700
     27 C27        -8.8123    1.8348   65.5309 C.ar    1  ZINC001141221454    0.0900
     28 F28        -9.1626    0.5311   65.4756 F       1  ZINC001141221454   -0.1300
     29 H29        -6.2215   -0.7871   66.3950 H       1  ZINC001141221454    0.1000
     30 H30        -7.8992   -0.3089   66.7484 H       1  ZINC001141221454    0.0600
     31 H31        -7.3112   -0.3173   65.0683 H       1  ZINC001141221454    0.0600
     32 H32        -6.1747    3.8146   66.2790 H       1  ZINC001141221454    0.1400
     33 H33        -7.8198    5.5498   65.6938 H       1  ZINC001141221454    0.1300
     34 H34       -10.0951    4.9114   65.0091 H       1  ZINC001141221454    0.1300
     35 H35       -11.6647    2.0157   65.6455 H       1  ZINC001141221454    0.0600
     36 H36       -11.6550    3.3066   64.4200 H       1  ZINC001141221454    0.0900
     37 H37       -13.0254    0.6072   63.6158 H       1  ZINC001141221454    0.0800
     38 H38       -12.8381    2.2381   62.8936 H       1  ZINC001141221454    0.0500
     39 H39       -11.8626   -0.4563   61.7922 H       1  ZINC001141221454    0.0900
     40 H40       -12.7507    0.8440   60.9312 H       1  ZINC001141221454    0.0700
     41 H41       -11.3211    2.0940   59.3459 H       1  ZINC001141221454    0.1000
     42 H42        -9.8922    2.9981   60.0830 H       1  ZINC001141221454    0.1100
     43 H43        -8.5636   -1.5295   59.7275 H       1  ZINC001141221454    0.4000
     44 H44       -10.3563   -3.4086   59.2576 H       1  ZINC001141221454    0.0800
     45 H45       -10.6796   -2.3618   57.8548 H       1  ZINC001141221454    0.0800
     46 H46        -7.2913   -2.7265   59.2874 H       1  ZINC001141221454    0.1400
     47 H47        -5.4373   -3.7883   58.0157 H       1  ZINC001141221454    0.1400
     48 H48        -5.9346   -4.9312   55.8921 H       1  ZINC001141221454    0.1600
     49 H49        -9.9722   -4.0327   56.2318 H       1  ZINC001141221454    0.1600
     50 H50       -10.0138    2.9077   62.6438 H       1  ZINC001141221454    0.0500
     51 H51        -9.1236    1.3751   62.8636 H       1  ZINC001141221454    0.0900
@<TRIPOS>BOND
     1     1     2    1
     2     1    29    1
     3     1    30    1
     4     1    31    1
     5     2     3    1
     6     3    27   ar
     7     3     4   ar
     8     4     5   ar
     9     4    32    1
    10     5     6   ar
    11     5    33    1
    12     6     7   ar
    13     6    34    1
    14     7     8    1
    15     7    27   ar
    16     8     9    1
    17     8    35    1
    18     8    36    1
    19     9    26    1
    20     9    10    1
    21    10    11    1
    22    10    37    1
    23    10    38    1
    24    11    12    1
    25    11    39    1
    26    11    40    1
    27    12    14    1
    28    12    13    1
    29    12    26    1
    30    13    14    1
    31    13    41    1
    32    13    42    1
    33    14    15    1
    34    14    16    1
    35    16    17    2
    36    16    18   am
    37    18    19    1
    38    18    43    1
    39    19    20    1
    40    19    44    1
    41    19    45    1
    42    20    25   ar
    43    20    21   ar
    44    21    22   ar
    45    21    46    1
    46    22    23   ar
    47    22    47    1
    48    23    24   ar
    49    23    48    1
    50    24    25   ar
    51    25    49    1
    52    26    50    1
    53    26    51    1
    54    27    28    1
@<TRIPOS>SUBSTRUCTURE
     1 ZINC001141221454        1 TEMP              0 ****  ****    0 ROOT


##########                                Name:    ZINC000442010511
##########                DOCK_Rotatable_Bonds:                  11
##########                         Heavy_Atoms:                  31
##########                    Molecular_Weight:             422.481
##########                DOCK_Rotatable_Bonds:                  11
##########                       Formal_Charge:          -0.0200005
##########                     HBond_Acceptors:                   7
##########                        HBond_Donors:                   2
##########                         Heavy_Atoms:                  31
##########                          Grid_Score:          -30.111706
##########                     Grid_vdw_energy:          -28.832195
##########                      Grid_es_energy:           -1.279511
##########           Internal_energy_repulsive:           14.681013

@<TRIPOS>MOLECULE
ZINC000442010511
 57 59 1 0 0
SMALL
USER_CHARGES


@<TRIPOS>ATOM
      1 C1         -6.0633   -3.9167   56.9234 C.3     1  ZINC000442010511   -0.1500
      2 C2         -7.5465   -4.0588   56.5758 C.3     1  ZINC000442010511   -0.0500
      3 C3         -8.3813   -3.4887   57.6935 C.2     1  ZINC000442010511    0.0000
      4 C4         -8.0454   -3.4708   58.9958 C.2     1  ZINC000442010511   -0.2100
      5 C5         -9.1108   -2.8473   59.6851 C.2     1  ZINC000442010511   -0.1900
      6 C6        -10.0340   -2.5215   58.7627 C.2     1  ZINC000442010511   -0.0300
      7 C7        -11.3471   -1.8338   59.0346 C.3     1  ZINC000442010511    0.2400
      8 H8        -11.5325   -1.0865   58.2631 H       1  ZINC000442010511    0.1400
      9 C9        -12.4754   -2.8670   59.0257 C.3     1  ZINC000442010511    0.0500
     10 O10       -13.7116   -2.2252   59.3452 O.3     1  ZINC000442010511   -0.3800
     11 C11       -14.1061   -1.2231   58.4059 C.3     1  ZINC000442010511    0.0300
     12 N12       -11.2940   -1.1802   60.3447 N.am    1  ZINC000442010511   -0.6900
     13 C13       -10.4734   -0.1292   60.5408 C.2     1  ZINC000442010511    0.5200
     14 O14        -9.7775    0.2750   59.6324 O.2     1  ZINC000442010511   -0.5100
     15 C15       -10.4206    0.5382   61.8756 C.2     1  ZINC000442010511    0.5100
     16 O16       -11.3074    0.3512   62.6831 O.2     1  ZINC000442010511   -0.5000
     17 N17        -9.3884    1.3481   62.1838 N.am    1  ZINC000442010511   -0.6300
     18 C18        -9.3389    1.9731   63.4339 C.ar    1  ZINC000442010511    0.1200
     19 C19        -8.9421    1.2573   64.5544 C.ar    1  ZINC000442010511   -0.1000
     20 C20        -8.8941    1.8773   65.7887 C.ar    1  ZINC000442010511   -0.1300
     21 C21        -9.2406    3.2103   65.9110 C.ar    1  ZINC000442010511   -0.0900
     22 C22        -9.6375    3.9304   64.7994 C.ar    1  ZINC000442010511   -0.1700
     23 C23        -9.6826    3.3187   63.5571 C.ar    1  ZINC000442010511    0.1000
     24 O24       -10.0726    4.0253   62.4633 O.3     1  ZINC000442010511   -0.2600
     25 C25        -9.1247    4.3623   61.5501 C.ar    1  ZINC000442010511    0.0800
     26 C26        -9.3189    4.0717   60.2072 C.ar    1  ZINC000442010511   -0.1300
     27 C27        -8.3538    4.4157   59.2807 C.ar    1  ZINC000442010511   -0.1100
     28 C28        -7.1947    5.0486   59.6906 C.ar    1  ZINC000442010511   -0.0800
     29 C29        -6.1433    5.4223   58.6777 C.3     1  ZINC000442010511   -0.1200
     30 C30        -6.9988    5.3397   61.0280 C.ar    1  ZINC000442010511   -0.1100
     31 C31        -7.9632    5.0026   61.9579 C.ar    1  ZINC000442010511   -0.1100
     32 O32        -9.5842   -2.9073   57.5574 O.3     1  ZINC000442010511   -0.1600
     33 H33        -5.8208   -2.8625   57.0567 H       1  ZINC000442010511    0.0600
     34 H34        -5.8531   -4.4574   57.8461 H       1  ZINC000442010511    0.0600
     35 H35        -5.4596   -4.3290   56.1150 H       1  ZINC000442010511    0.0700
     36 H36        -7.7569   -3.5181   55.6530 H       1  ZINC000442010511    0.0900
     37 H37        -7.7892   -5.1130   56.4424 H       1  ZINC000442010511    0.0800
     38 H38        -7.1366   -3.8588   59.4315 H       1  ZINC000442010511    0.1500
     39 H39        -9.1719   -2.6675   60.7483 H       1  ZINC000442010511    0.1500
     40 H40       -12.5460   -3.3194   58.0366 H       1  ZINC000442010511    0.0700
     41 H41       -12.2659   -3.6403   59.7649 H       1  ZINC000442010511    0.0700
     42 H42       -15.0532   -0.7840   58.7194 H       1  ZINC000442010511    0.0900
     43 H43       -13.3426   -0.4466   58.3609 H       1  ZINC000442010511    0.0400
     44 H44       -14.2235   -1.6748   57.4208 H       1  ZINC000442010511    0.0400
     45 H45       -11.8493   -1.5040   61.0712 H       1  ZINC000442010511    0.4200
     46 H46        -8.6798    1.4975   61.5385 H       1  ZINC000442010511    0.4300
     47 H47        -8.6711    0.2159   64.4622 H       1  ZINC000442010511    0.1600
     48 H48        -8.5854    1.3190   66.6602 H       1  ZINC000442010511    0.1300
     49 H49        -9.2015    3.6902   66.8776 H       1  ZINC000442010511    0.1300
     50 H50        -9.9082    4.9712   64.8988 H       1  ZINC000442010511    0.1300
     51 H51       -10.2237    3.5768   59.8867 H       1  ZINC000442010511    0.1300
     52 H52        -8.5044    4.1899   58.2354 H       1  ZINC000442010511    0.1300
     53 H53        -6.3418    6.4258   58.3012 H       1  ZINC000442010511    0.0700
     54 H54        -5.1605    5.3987   59.1485 H       1  ZINC000442010511    0.0700
     55 H55        -6.1670    4.7127   57.8506 H       1  ZINC000442010511    0.0700
     56 H56        -6.0926    5.8341   61.3455 H       1  ZINC000442010511    0.1300
     57 H57        -7.8098    5.2304   63.0024 H       1  ZINC000442010511    0.1300
@<TRIPOS>BOND
     1     1     2    1
     2     1    33    1
     3     1    34    1
     4     1    35    1
     5     2     3    1
     6     2    36    1
     7     2    37    1
     8     3    32    1
     9     3     4    2
    10     4     5    1
    11     4    38    1
    12     5     6    2
    13     5    39    1
    14     6     7    1
    15     6    32    1
    16     7     8    1
    17     7     9    1
    18     7    12    1
    19     9    10    1
    20     9    40    1
    21     9    41    1
    22    10    11    1
    23    11    42    1
    24    11    43    1
    25    11    44    1
    26    12    13   am
    27    12    45    1
    28    13    14    2
    29    13    15    1
    30    15    16    2
    31    15    17   am
    32    17    18    1
    33    17    46    1
    34    18    23   ar
    35    18    19   ar
    36    19    20   ar
    37    19    47    1
    38    20    21   ar
    39    20    48    1
    40    21    22   ar
    41    21    49    1
    42    22    23   ar
    43    22    50    1
    44    23    24    1
    45    24    25    1
    46    25    31   ar
    47    25    26   ar
    48    26    27   ar
    49    26    51    1
    50    27    28   ar
    51    27    52    1
    52    28    29    1
    53    28    30   ar
    54    29    53    1
    55    29    54    1
    56    29    55    1
    57    30    31   ar
    58    30    56    1
    59    31    57    1
@<TRIPOS>SUBSTRUCTURE
     1 ZINC000442010511        1 TEMP              0 ****  ****    0 ROOT


##########                                Name:     oleObject52.pdb
##########                DOCK_Rotatable_Bonds:                  10
##########                         Heavy_Atoms:                  38
##########                    Molecular_Weight:              533.07
##########                DOCK_Rotatable_Bonds:                  10
##########                       Formal_Charge:         0.000300027
##########                     HBond_Acceptors:                   8
##########                        HBond_Donors:                   0
##########                         Heavy_Atoms:                  38
##########                          Grid_Score:          -30.109837
##########                     Grid_vdw_energy:          -29.474262
##########                      Grid_es_energy:           -0.635575
##########           Internal_energy_repulsive:           29.957451

@<TRIPOS>MOLECULE
oleObject52.pdb
 71 74 1 0 0
SMALL
NO_CHARGES


@<TRIPOS>ATOM
      1 C          -8.9375    3.9663   52.8275 C.ar    1  UNL        -0.0596
      2 C          -9.9789    4.3848   51.9856 C.ar    1  UNL        -0.0314
      3 C         -11.3220    4.2807   52.4060 C.ar    1  UNL         0.0800
      4 C         -11.6209    3.7546   53.6844 C.ar    1  UNL         0.0089
      5 C         -10.5626    3.3323   54.5175 C.ar    1  UNL        -0.0541
      6 C          -9.2298    3.4389   54.0926 C.ar    1  UNL        -0.0617
      7 C         -13.0858    3.6396   54.1329 C.3     1  UNL         0.0953
      8 C         -13.8079    2.4470   53.4815 C.ar    1  UNL         0.0684
      9 C         -15.1238    2.5591   52.9663 C.ar    1  UNL        -0.0272
     10 C         -15.7107    1.4248   52.3745 C.ar    1  UNL        -0.0559
     11 C         -14.9793    0.2300   52.3128 C.ar    1  UNL        -0.0435
     12 C         -13.6811    0.2086   52.8437 C.ar    1  UNL         0.0272
     13 N         -13.1111    1.2877   53.4116 N.ar    1  UNL        -0.2587
     14 C         -15.9102    3.8633   53.0185 C.3     1  UNL        -0.0379
     15 N         -13.2855    3.7499   55.6063 N.am    1  UNL        -0.2917
     16 C         -13.2533    2.6049   56.4097 C.2     1  UNL         0.2180
     17 O         -12.8104    1.5565   55.9707 O.2     1  UNL        -0.2772
     18 C         -13.4688    2.7975   57.9326 C.3     1  UNL         0.0385
     19 C         -12.2159    3.3834   58.6274 C.3     1  UNL        -0.0289
     20 C         -11.0878    2.3385   58.7679 C.3     1  UNL        -0.0010
     21 N         -11.5484    1.1359   59.5000 N.4     1  UNL        -0.3010
     22 C         -12.7296    0.5003   58.8758 C.3     1  UNL        -0.0010
     23 C         -13.8972    1.4938   58.6572 C.3     1  UNL        -0.0289
     24 C         -10.4844    0.1441   59.7720 C.3     1  UNL         0.0222
     25 C         -10.8927   -0.9285   60.8029 C.3     1  UNL         0.0661
     26 O         -11.0666   -2.1708   60.0984 O.3     1  UNL        -0.3432
     27 C         -10.0975   -2.7341   59.2909 C.ar    1  UNL         0.0937
     28 C          -8.7644   -2.8961   59.7233 C.ar    1  UNL        -0.0289
     29 C          -7.8096   -3.4742   58.8703 C.ar    1  UNL        -0.0417
     30 C          -8.1754   -3.8954   57.5801 C.ar    1  UNL         0.0537
     31 C          -9.5022   -3.7362   57.1457 C.ar    1  UNL        -0.0230
     32 C         -10.4592   -3.1586   57.9966 C.ar    1  UNL         0.0721
     33 CL        -12.1046   -2.9767   57.4180 Cl      1  UNL        -0.0814
     34 C          -7.1984   -4.4853   56.7107 C.1     1  UNL         0.0992
     35 N          -6.4033   -4.9584   56.0170 N.1     1  UNL        -0.1924
     36 C         -13.5518    5.0998   56.1492 C.3     1  UNL         0.0037
     37 O         -12.3673    4.6786   51.5901 O.3     1  UNL        -0.3490
     38 C         -12.1890    5.2208   50.2707 C.3     1  UNL         0.0422
     39 H          -7.9058    4.0489   52.4981 H       1  UNL         0.0624
     40 H          -9.7290    4.7870   51.0097 H       1  UNL         0.0651
     41 H         -10.7640    2.9178   55.4992 H       1  UNL         0.0627
     42 H          -8.4247    3.1119   54.7443 H       1  UNL         0.0623
     43 H         -13.5656    4.5326   53.7173 H       1  UNL         0.0627
     44 H         -16.7154    1.4690   51.9640 H       1  UNL         0.0627
     45 H         -15.4065   -0.6594   51.8593 H       1  UNL         0.0639
     46 H         -13.0779   -0.6977   52.8117 H       1  UNL         0.0840
     47 H         -15.9244    4.2768   54.0324 H       1  UNL         0.0280
     48 H         -16.9529    3.7211   52.7087 H       1  UNL         0.0280
     49 H         -15.4668    4.6141   52.3523 H       1  UNL         0.0280
     50 H         -14.2939    3.5048   58.0668 H       1  UNL         0.0402
     51 H         -12.4950    3.7335   59.6296 H       1  UNL         0.0288
     52 H         -11.8464    4.2613   58.0852 H       1  UNL         0.0288
     53 H         -10.2529    2.8154   59.2942 H       1  UNL         0.0431
     54 H         -10.7338    2.0504   57.7691 H       1  UNL         0.0431
     55 H         -13.0877   -0.3203   59.5108 H       1  UNL         0.0431
     56 H         -12.4409    0.0606   57.9129 H       1  UNL         0.0431
     57 H         -14.3089    1.7590   59.6396 H       1  UNL         0.0288
     58 H         -14.7073    1.0020   58.1033 H       1  UNL         0.0288
     59 H          -9.5790    0.6548   60.1256 H       1  UNL         0.0455
     60 H         -10.2273   -0.3731   58.8383 H       1  UNL         0.0455
     61 H         -11.8321   -0.6306   61.2861 H       1  UNL         0.0586
     62 H         -10.1127   -1.0373   61.5661 H       1  UNL         0.0586
     63 H          -8.4567   -2.5797   60.7147 H       1  UNL         0.0651
     64 H          -6.7853   -3.5943   59.2139 H       1  UNL         0.0638
     65 H          -9.7929   -4.0595   56.1496 H       1  UNL         0.0653
     66 H         -14.0292    5.7349   55.3943 H       1  UNL         0.0433
     67 H         -12.6120    5.5682   56.4661 H       1  UNL         0.0433
     68 H         -14.2381    5.0410   57.0019 H       1  UNL         0.0433
     69 H         -13.1666    5.4490   49.8285 H       1  UNL         0.0535
     70 H         -11.6760    4.4970   49.6248 H       1  UNL         0.0535
     71 H         -11.6021    6.1470   50.3122 H       1  UNL         0.0535
@<TRIPOS>BOND
     1     1     2   ar
     2     1     6   ar
     3     1    39    1
     4     2     3   ar
     5     2    40    1
     6     3     4   ar
     7     3    37    1
     8     4     5   ar
     9     4     7    1
    10     5     6   ar
    11     5    41    1
    12     6    42    1
    13     7     8    1
    14     7    15    1
    15     7    43    1
    16     8     9   ar
    17     8    13   ar
    18     9    10   ar
    19     9    14    1
    20    10    11   ar
    21    10    44    1
    22    11    12   ar
    23    11    45    1
    24    12    13   ar
    25    12    46    1
    26    14    47    1
    27    14    48    1
    28    14    49    1
    29    15    16   am
    30    15    36    1
    31    16    17    2
    32    16    18    1
    33    18    19    1
    34    18    23    1
    35    18    50    1
    36    19    20    1
    37    19    51    1
    38    19    52    1
    39    20    21    1
    40    20    53    1
    41    20    54    1
    42    21    22    1
    43    21    24    1
    44    22    23    1
    45    22    55    1
    46    22    56    1
    47    23    57    1
    48    23    58    1
    49    24    25    1
    50    24    59    1
    51    24    60    1
    52    25    26    1
    53    25    61    1
    54    25    62    1
    55    26    27    1
    56    27    28   ar
    57    27    32   ar
    58    28    29   ar
    59    28    63    1
    60    29    30   ar
    61    29    64    1
    62    30    31   ar
    63    30    34    1
    64    31    32   ar
    65    31    65    1
    66    32    33    1
    67    34    35    3
    68    36    66    1
    69    36    67    1
    70    36    68    1
    71    37    38    1
    72    38    69    1
    73    38    70    1
    74    38    71    1
@<TRIPOS>SUBSTRUCTURE
     1 UNL         1 TEMP              0 ****  ****    0 ROOT


##########                                Name:    ZINC000074782190
##########                DOCK_Rotatable_Bonds:                   9
##########                         Heavy_Atoms:                  25
##########                    Molecular_Weight:             341.453
##########                DOCK_Rotatable_Bonds:                   9
##########                       Formal_Charge:          -0.0200006
##########                     HBond_Acceptors:                   5
##########                        HBond_Donors:                   1
##########                         Heavy_Atoms:                  25
##########                          Grid_Score:          -30.093178
##########                     Grid_vdw_energy:          -29.835218
##########                      Grid_es_energy:           -0.257960
##########           Internal_energy_repulsive:           25.467665

@<TRIPOS>MOLECULE
ZINC000074782190
 52 53 1 0 0
SMALL
USER_CHARGES


@<TRIPOS>ATOM
      1 C1        -11.5496    2.1233   63.2377 C.3     1  ZINC000074782190   -0.1100
      2 C2        -10.3947    1.2861   63.7237 C.ar    1  ZINC000074782190   -0.1200
      3 C3         -9.7871    1.5797   64.9289 C.ar    1  ZINC000074782190   -0.0800
      4 C4         -8.7269    0.8121   65.3752 C.ar    1  ZINC000074782190   -0.1500
      5 C5         -8.2729   -0.2509   64.6170 C.ar    1  ZINC000074782190   -0.0900
      6 C6         -8.8775   -0.5491   63.4111 C.ar    1  ZINC000074782190   -0.2100
      7 C7         -9.9445    0.2161   62.9636 C.ar    1  ZINC000074782190    0.1300
      8 O8        -10.5409   -0.0750   61.7777 O.3     1  ZINC000074782190   -0.3000
      9 C9         -9.7140   -0.0509   60.6125 C.3     1  ZINC000074782190    0.0700
     10 H10        -8.6661   -0.0929   60.9097 H       1  ZINC000074782190    0.0800
     11 C11        -9.9712    1.2391   59.8312 C.3     1  ZINC000074782190   -0.1800
     12 C12       -10.0422   -1.2563   59.7292 C.3     1  ZINC000074782190    0.1400
     13 N13       -11.4927   -1.3457   59.5443 N.am    1  ZINC000074782190   -0.7500
     14 C14       -11.9998   -2.0974   58.5471 C.2     1  ZINC000074782190    0.7100
     15 O15       -11.2535   -2.7012   57.8010 O.2     1  ZINC000074782190   -0.5900
     16 N16       -13.3342   -2.1797   58.3770 N.am    1  ZINC000074782190   -0.6200
     17 C17       -13.8855   -2.9967   57.2931 C.3     1  ZINC000074782190    0.1800
     18 C18       -13.8392   -2.2181   56.0036 C.ar    1  ZINC000074782190   -0.1600
     19 C19       -14.9814   -1.6052   55.5123 C.ar    1  ZINC000074782190   -0.0500
     20 C20       -14.8916   -0.8989   54.3223 C.ar    1  ZINC000074782190   -0.1800
     21 C21       -13.6751   -0.8298   53.6704 C.ar    1  ZINC000074782190    0.1000
     22 N22       -12.6087   -1.4255   54.1675 N.ar    1  ZINC000074782190   -0.4900
     23 C23       -12.6558   -2.1011   55.2988 C.ar    1  ZINC000074782190    0.1100
     24 C24       -14.2335   -1.4521   59.2760 C.3     1  ZINC000074782190    0.1300
     25 C25       -15.3490   -0.7957   58.4600 C.3     1  ZINC000074782190   -0.1800
     26 C26       -14.8452   -2.4268   60.2842 C.3     1  ZINC000074782190   -0.1800
     27 H27       -12.4845    1.7026   63.6079 H       1  ZINC000074782190    0.0700
     28 H28       -11.4392    3.1434   63.6058 H       1  ZINC000074782190    0.0600
     29 H29       -11.5605    2.1296   62.1478 H       1  ZINC000074782190    0.0700
     30 H30       -10.1401    2.4096   65.5230 H       1  ZINC000074782190    0.1300
     31 H31        -8.2528    1.0438   66.3175 H       1  ZINC000074782190    0.1200
     32 H32        -7.4444   -0.8487   64.9676 H       1  ZINC000074782190    0.1200
     33 H33        -8.5221   -1.3794   62.8189 H       1  ZINC000074782190    0.1300
     34 H34       -11.0190    1.2811   59.5340 H       1  ZINC000074782190    0.0700
     35 H35        -9.7373    2.0978   60.4604 H       1  ZINC000074782190    0.0700
     36 H36        -9.3404    1.2575   58.9424 H       1  ZINC000074782190    0.0800
     37 H37        -9.5588   -1.1383   58.7594 H       1  ZINC000074782190    0.0800
     38 H38        -9.6800   -2.1665   60.2073 H       1  ZINC000074782190    0.0900
     39 H39       -12.0881   -0.8640   60.1396 H       1  ZINC000074782190    0.4100
     40 H40       -13.2961   -3.9076   57.1889 H       1  ZINC000074782190    0.0900
     41 H41       -14.9186   -3.2568   57.5235 H       1  ZINC000074782190    0.1000
     42 H42       -15.9191   -1.6765   56.0434 H       1  ZINC000074782190    0.1400
     43 H43       -15.7615   -0.4093   53.9101 H       1  ZINC000074782190    0.1300
     44 H44       -13.5970   -0.2820   52.7430 H       1  ZINC000074782190    0.1600
     45 H45       -11.7615   -2.5757   55.6748 H       1  ZINC000074782190    0.1500
     46 H46       -13.6722   -0.6839   59.8078 H       1  ZINC000074782190    0.1000
     47 H47       -15.9657   -1.5681   58.0005 H       1  ZINC000074782190    0.0600
     48 H48       -15.9654   -0.1809   59.1158 H       1  ZINC000074782190    0.0700
     49 H49       -14.9104   -0.1704   57.6822 H       1  ZINC000074782190    0.0600
     50 H50       -14.0635   -2.8075   60.9417 H       1  ZINC000074782190    0.0700
     51 H51       -15.5995   -1.9101   60.8776 H       1  ZINC000074782190    0.0700
     52 H52       -15.3083   -3.2575   59.7515 H       1  ZINC000074782190    0.0700
@<TRIPOS>BOND
     1     1     2    1
     2     1    27    1
     3     1    28    1
     4     1    29    1
     5     2     7   ar
     6     2     3   ar
     7     3     4   ar
     8     3    30    1
     9     4     5   ar
    10     4    31    1
    11     5     6   ar
    12     5    32    1
    13     6     7   ar
    14     6    33    1
    15     7     8    1
    16     8     9    1
    17     9    10    1
    18     9    11    1
    19     9    12    1
    20    11    34    1
    21    11    35    1
    22    11    36    1
    23    12    13    1
    24    12    37    1
    25    12    38    1
    26    13    14   am
    27    13    39    1
    28    14    15    2
    29    14    16   am
    30    16    17    1
    31    16    24    1
    32    17    18    1
    33    17    40    1
    34    17    41    1
    35    18    23   ar
    36    18    19   ar
    37    19    20   ar
    38    19    42    1
    39    20    21   ar
    40    20    43    1
    41    21    22   ar
    42    21    44    1
    43    22    23   ar
    44    23    45    1
    45    24    25    1
    46    24    26    1
    47    24    46    1
    48    25    47    1
    49    25    48    1
    50    25    49    1
    51    26    50    1
    52    26    51    1
    53    26    52    1
@<TRIPOS>SUBSTRUCTURE
     1 ZINC000074782190        1 TEMP              0 ****  ****    0 ROOT


##########                                Name:    ZINC000012979878
##########                DOCK_Rotatable_Bonds:                   7
##########                         Heavy_Atoms:                  26
##########                    Molecular_Weight:             388.874
##########                DOCK_Rotatable_Bonds:                   7
##########                       Formal_Charge:          -0.0100003
##########                     HBond_Acceptors:                   7
##########                        HBond_Donors:                   1
##########                         Heavy_Atoms:                  26
##########                          Grid_Score:          -30.078768
##########                     Grid_vdw_energy:          -29.505482
##########                      Grid_es_energy:           -0.573285
##########           Internal_energy_repulsive:          169.385620

@<TRIPOS>MOLECULE
ZINC000012979878
 43 45 1 0 0
SMALL
USER_CHARGES


@<TRIPOS>ATOM
      1 C1         -8.6029    4.7996   65.0493 C.3     1  <0>         0.0300
      2 O2         -7.8432    5.7626   64.3161 O.3     1  <0>        -0.3100
      3 C3         -7.7281    5.5670   62.9762 C.ar    1  <0>         0.1500
      4 C4         -7.0051    6.4646   62.2032 C.ar    1  <0>        -0.2200
      5 C5         -6.8875    6.2675   60.8402 C.ar    1  <0>        -0.0600
      6 C6         -7.4885    5.1767   60.2432 C.ar    1  <0>        -0.1800
      7 C7         -8.2136    4.2746   61.0122 C.ar    1  <0>         0.1800
      8 N8         -8.8222    3.1702   60.4077 N.am    1  <0>        -0.6700
      9 C9         -9.5254    2.2958   61.1544 C.2     1  <0>         0.6000
     10 O10        -9.6307    2.4674   62.3545 O.2     1  <0>        -0.4900
     11 C11       -10.1636    1.1375   60.5205 C.2     1  <0>        -0.3000
     12 C12       -10.9297    1.1595   59.4009 C.2     1  <0>         0.1600
     13 C13       -11.2315    2.4248   58.6400 C.3     1  <0>        -0.0900
     14 N14       -11.3834   -0.0141   59.0382 N.2     1  <0>        -0.4500
     15 C15       -11.0570   -1.0303   59.7703 C.2     1  <0>         0.0600
     16 C16       -11.4846   -2.4515   59.5087 C.3     1  <0>         0.1300
     17 O17       -10.4255   -3.3412   59.8674 O.3     1  <0>        -0.3000
     18 C18        -9.4165   -3.4934   58.9695 C.ar    1  <0>         0.1300
     19 C19        -9.7006   -3.8511   57.6597 C.ar    1  <0>        -0.2000
     20 C20        -8.6738   -4.0054   56.7485 C.ar    1  <0>        -0.0700
     21 C21        -7.3625   -3.8036   57.1417 C.ar    1  <0>        -0.0700
     22 Cl22       -6.0738   -3.9985   55.9950 Cl      1  <0>        -0.0700
     23 C23        -7.0773   -3.4463   58.4476 C.ar    1  <0>        -0.0700
     24 C24        -8.1018   -3.2855   59.3603 C.ar    1  <0>        -0.1300
     25 S25       -10.0666   -0.5332   61.0720 S.3     1  <0>         0.2000
     26 C26        -8.3280    4.4680   62.3816 C.ar    1  <0>        -0.1500
     27 H27        -9.6238    4.7755   64.6681 H       1  <0>         0.0600
     28 H28        -8.1490    3.8152   64.9350 H       1  <0>         0.0600
     29 H29        -8.6153    5.0735   66.1043 H       1  <0>         0.1000
     30 H30        -6.5341    7.3186   62.6673 H       1  <0>         0.1300
     31 H31        -6.3249    6.9679   60.2409 H       1  <0>         0.1300
     32 H32        -7.3951    5.0249   59.1780 H       1  <0>         0.1300
     33 H33        -8.7382    3.0333   59.4511 H       1  <0>         0.4100
     34 H34       -10.4661    2.5832   57.8802 H       1  <0>         0.0900
     35 H35       -12.2065    2.3368   58.1607 H       1  <0>         0.0800
     36 H36       -11.2400    3.2696   59.3287 H       1  <0>         0.1000
     37 H37       -12.3686   -2.6804   60.1037 H       1  <0>         0.0900
     38 H38       -11.7175   -2.5719   58.4506 H       1  <0>         0.1000
     39 H39       -10.7238   -4.0095   57.3526 H       1  <0>         0.1400
     40 H40        -8.8945   -4.2839   55.7287 H       1  <0>         0.1400
     41 H41        -6.0532   -3.2889   58.7526 H       1  <0>         0.1400
     42 H42        -7.8787   -3.0067   60.3795 H       1  <0>         0.1400
     43 H43        -8.8907    3.7682   62.9816 H       1  <0>         0.1400
@<TRIPOS>BOND
     1     1     2    1
     2     1    27    1
     3     1    28    1
     4     1    29    1
     5     2     3    1
     6     3    26   ar
     7     3     4   ar
     8     4     5   ar
     9     4    30    1
    10     5     6   ar
    11     5    31    1
    12     6     7   ar
    13     6    32    1
    14     7     8    1
    15     7    26   ar
    16     8     9   am
    17     8    33    1
    18     9    10    2
    19     9    11    1
    20    11    25    1
    21    11    12    2
    22    12    13    1
    23    12    14    1
    24    13    34    1
    25    13    35    1
    26    13    36    1
    27    14    15    2
    28    15    16    1
    29    15    25    1
    30    16    17    1
    31    16    37    1
    32    16    38    1
    33    17    18    1
    34    18    24   ar
    35    18    19   ar
    36    19    20   ar
    37    19    39    1
    38    20    21   ar
    39    20    40    1
    40    21    22    1
    41    21    23   ar
    42    23    24   ar
    43    23    41    1
    44    24    42    1
    45    26    43    1
@<TRIPOS>SUBSTRUCTURE
     1 <0>         1 TEMP              0 ****  ****    0 ROOT


##########                                Name:    ZINC000892389374
##########                DOCK_Rotatable_Bonds:                   6
##########                         Heavy_Atoms:                  25
##########                    Molecular_Weight:             371.383
##########                DOCK_Rotatable_Bonds:                   6
##########                       Formal_Charge:          -0.0199998
##########                     HBond_Acceptors:                   9
##########                        HBond_Donors:                   1
##########                         Heavy_Atoms:                  25
##########                          Grid_Score:          -30.076773
##########                     Grid_vdw_energy:          -31.252491
##########                      Grid_es_energy:            1.175718
##########           Internal_energy_repulsive:           13.922013

@<TRIPOS>MOLECULE
ZINC000892389374
 41 43 1 0 0
SMALL
USER_CHARGES


@<TRIPOS>ATOM
      1 C1        -13.0821   -1.7632   60.0518 C.3     1  ZINC000892389374   -0.1000
      2 C2        -11.8235   -2.2431   59.3759 C.ar    1  ZINC000892389374   -0.1800
      3 C3        -11.8981   -3.1811   58.3646 C.ar    1  ZINC000892389374   -0.0400
      4 C4        -10.7465   -3.6233   57.7420 C.ar    1  ZINC000892389374   -0.2100
      5 C5         -9.5095   -3.1261   58.1319 C.ar    1  ZINC000892389374    0.2200
      6 N6         -8.3438   -3.5747   57.5007 N.am    1  ZINC000892389374   -0.5700
      7 C7         -8.1961   -3.8329   56.0602 C.3     1  ZINC000892389374    0.0600
      8 C8         -6.7343   -4.2992   55.9188 C.3     1  ZINC000892389374    0.0400
      9 O9         -6.2169   -4.2553   57.2801 O.3     1  ZINC000892389374   -0.3200
     10 C10        -7.1783   -3.8334   58.1094 C.2     1  ZINC000892389374    0.6400
     11 O11        -7.0123   -3.7049   59.3062 O.2     1  ZINC000892389374   -0.5000
     12 C12        -9.4307   -2.1838   59.1473 C.ar    1  ZINC000892389374   -0.2300
     13 C13       -10.5894   -1.7373   59.7668 C.ar    1  ZINC000892389374    0.2400
     14 N14       -10.5146   -0.7890   60.7894 N.pl3   1  ZINC000892389374   -0.7400
     15 C15        -9.2105   -0.3901   61.3245 C.3     1  ZINC000892389374    0.2000
     16 C16        -9.4106    0.4912   62.5304 C.2     1  ZINC000892389374   -0.2400
     17 C17        -8.5807    0.5983   63.5725 C.2     1  ZINC000892389374    0.0600
     18 N18        -8.9799    1.4394   64.5050 N.2     1  ZINC000892389374   -0.4500
     19 C19       -10.1004    2.0479   64.3077 C.2     1  ZINC000892389374    0.0200
     20 C20       -10.7204    3.0424   65.2552 C.3     1  ZINC000892389374   -0.0900
     21 C21        -9.6165    3.7679   66.0271 C.3     1  ZINC000892389374    0.4600
     22 F22        -8.8459    2.8337   66.7276 F       1  ZINC000892389374   -0.1800
     23 F23        -8.8013    4.4658   65.1297 F       1  ZINC000892389374   -0.1800
     24 F24       -10.1931    4.6677   66.9300 F       1  ZINC000892389374   -0.1700
     25 S25       -10.7763    1.5683   62.8122 S.3     1  ZINC000892389374    0.1900
     26 H26       -13.4729   -0.8965   59.5188 H       1  ZINC000892389374    0.0700
     27 H27       -13.8255   -2.5603   60.0436 H       1  ZINC000892389374    0.0700
     28 H28       -12.8582   -1.4858   61.0819 H       1  ZINC000892389374    0.0600
     29 H29       -12.8586   -3.5699   58.0600 H       1  ZINC000892389374    0.1300
     30 H30       -10.8082   -4.3568   56.9516 H       1  ZINC000892389374    0.1200
     31 H31        -8.8811   -4.6180   55.7399 H       1  ZINC000892389374    0.1000
     32 H32        -8.3639   -2.9202   55.4885 H       1  ZINC000892389374    0.1000
     33 H33        -6.6936   -5.3156   55.5271 H       1  ZINC000892389374    0.1100
     34 H34        -6.1765   -3.6183   55.2759 H       1  ZINC000892389374    0.1100
     35 H35        -8.4700   -1.7960   59.4524 H       1  ZINC000892389374    0.1600
     36 H36       -11.3262   -0.3944   61.1453 H       1  ZINC000892389374    0.4000
     37 H37        -8.6490   -1.2787   61.6130 H       1  ZINC000892389374    0.0900
     38 H38        -8.6570    0.1578   60.5619 H       1  ZINC000892389374    0.0800
     39 H39        -7.6583    0.0410   63.6443 H       1  ZINC000892389374    0.1800
     40 H40       -11.3050    3.7677   64.6892 H       1  ZINC000892389374    0.1300
     41 H41       -11.3707    2.5195   65.9565 H       1  ZINC000892389374    0.1400
@<TRIPOS>BOND
     1     1     2    1
     2     1    26    1
     3     1    27    1
     4     1    28    1
     5     2    13   ar
     6     2     3   ar
     7     3     4   ar
     8     3    29    1
     9     4     5   ar
    10     4    30    1
    11     5     6    1
    12     5    12   ar
    13     6    10   am
    14     6     7    1
    15     7     8    1
    16     7    31    1
    17     7    32    1
    18     8     9    1
    19     8    33    1
    20     8    34    1
    21     9    10    1
    22    10    11    2
    23    12    13   ar
    24    12    35    1
    25    13    14    1
    26    14    15    1
    27    14    36    1
    28    15    16    1
    29    15    37    1
    30    15    38    1
    31    16    25    1
    32    16    17    2
    33    17    18    1
    34    17    39    1
    35    18    19    2
    36    19    20    1
    37    19    25    1
    38    20    21    1
    39    20    40    1
    40    20    41    1
    41    21    22    1
    42    21    23    1
    43    21    24    1
@<TRIPOS>SUBSTRUCTURE
     1 ZINC000892389374        1 TEMP              0 ****  ****    0 ROOT


##########                                Name:    ZINC000541252362
##########                DOCK_Rotatable_Bonds:                   5
##########                         Heavy_Atoms:                  27
##########                    Molecular_Weight:             401.254
##########                DOCK_Rotatable_Bonds:                   5
##########                       Formal_Charge:          -0.0199999
##########                     HBond_Acceptors:                   9
##########                        HBond_Donors:                   1
##########                         Heavy_Atoms:                  27
##########                          Grid_Score:          -30.036528
##########                     Grid_vdw_energy:          -29.200380
##########                      Grid_es_energy:           -0.836148
##########           Internal_energy_repulsive:            5.707355

@<TRIPOS>MOLECULE
ZINC000541252362
 41 44 1 0 0
SMALL
USER_CHARGES


@<TRIPOS>ATOM
      1 C1         -7.0673   -4.6462   56.5273 C.3     1  ZINC000541252362    0.1000
      2 N2         -7.7684   -3.8033   57.4991 N.pl3   1  ZINC000541252362   -0.3800
      3 C3         -7.2808   -3.3441   58.6658 C.2     1  ZINC000541252362    0.2600
      4 N4         -8.2085   -2.6288   59.2449 N.2     1  ZINC000541252362   -0.5300
      5 C5         -9.3075   -2.6058   58.4790 C.2     1  ZINC000541252362    0.2700
      6 C6        -10.5708   -1.8963   58.8001 C.ar    1  ZINC000541252362    0.0000
      7 C7        -11.7594   -2.2687   58.1753 C.ar    1  ZINC000541252362   -0.1000
      8 C8        -12.9342   -1.6079   58.4753 C.ar    1  ZINC000541252362   -0.1000
      9 C9        -12.9360   -0.5763   59.3945 C.ar    1  ZINC000541252362   -0.1300
     10 C10       -11.7553   -0.1982   60.0224 C.ar    1  ZINC000541252362    0.1400
     11 N11       -11.7609    0.8471   60.9528 N.am    1  ZINC000541252362   -0.6800
     12 C12       -12.5574    0.7794   62.0378 C.2     1  ZINC000541252362    0.5100
     13 O13       -13.2695   -0.1876   62.2080 O.2     1  ZINC000541252362   -0.4900
     14 C14       -12.5634    1.9051   63.0397 C.3     1  ZINC000541252362   -0.0600
     15 C15       -11.2468    1.9327   63.7723 C.2     1  ZINC000541252362    0.0700
     16 C16       -10.3686    0.9090   63.8544 C.2     1  ZINC000541252362   -0.0700
     17 N17        -9.3101    1.3437   64.6042 N.pl3   1  ZINC000541252362   -0.3500
     18 C18        -8.1519    0.7403   65.0043 C.2     1  ZINC000541252362    0.0700
     19 C19        -7.2533    1.4087   65.7587 C.2     1  ZINC000541252362   -0.0500
     20 Cl20       -5.7876    0.6227   66.2562 Cl      1  ZINC000541252362   -0.0200
     21 C21        -7.4992    2.7382   66.1423 C.2     1  ZINC000541252362   -0.0900
     22 C22        -8.6494    3.3511   65.7499 C.2     1  ZINC000541252362    0.0200
     23 Cl23       -8.9702    4.9930   66.2136 Cl      1  ZINC000541252362   -0.0100
     24 C24        -9.5778    2.6389   64.9626 C.2     1  ZINC000541252362    0.2200
     25 N25       -10.7507    2.9745   64.4435 N.2     1  ZINC000541252362   -0.4300
     26 C26       -10.5727   -0.8606   59.7307 C.ar    1  ZINC000541252362   -0.0800
     27 N27        -9.0793   -3.3110   57.3929 N.2     1  ZINC000541252362   -0.3100
     28 H28        -6.5398   -4.0147   55.8125 H       1  ZINC000541252362    0.0800
     29 H29        -6.3513   -5.2822   57.0478 H       1  ZINC000541252362    0.0900
     30 H30        -7.7892   -5.2687   55.9987 H       1  ZINC000541252362    0.0900
     31 H31        -6.2922   -3.5342   59.0568 H       1  ZINC000541252362    0.2200
     32 H32       -11.7617   -3.0742   57.4558 H       1  ZINC000541252362    0.1300
     33 H33       -13.8544   -1.8982   57.9899 H       1  ZINC000541252362    0.1300
     34 H34       -13.8573   -0.0621   59.6253 H       1  ZINC000541252362    0.1300
     35 H35       -11.1915    1.6205   60.8166 H       1  ZINC000541252362    0.4100
     36 H36       -12.7104    2.8524   62.5208 H       1  ZINC000541252362    0.1200
     37 H37       -13.3732    1.7523   63.7532 H       1  ZINC000541252362    0.1200
     38 H38       -10.4816   -0.0696   63.4115 H       1  ZINC000541252362    0.1900
     39 H39        -7.9531   -0.2810   64.7149 H       1  ZINC000541252362    0.1800
     40 H40        -6.7793    3.2709   66.7460 H       1  ZINC000541252362    0.1600
     41 H41        -9.6541   -0.5686   60.2178 H       1  ZINC000541252362    0.1500
@<TRIPOS>BOND
     1     1     2    1
     2     1    28    1
     3     1    29    1
     4     1    30    1
     5     2    27    1
     6     2     3    1
     7     3     4    2
     8     3    31    1
     9     4     5    1
    10     5     6    1
    11     5    27    2
    12     6    26   ar
    13     6     7   ar
    14     7     8   ar
    15     7    32    1
    16     8     9   ar
    17     8    33    1
    18     9    10   ar
    19     9    34    1
    20    10    11    1
    21    10    26   ar
    22    11    12   am
    23    11    35    1
    24    12    13    2
    25    12    14    1
    26    14    15    1
    27    14    36    1
    28    14    37    1
    29    15    25    1
    30    15    16    2
    31    16    17    1
    32    16    38    1
    33    17    24    1
    34    17    18    1
    35    18    19    2
    36    18    39    1
    37    19    20    1
    38    19    21    1
    39    21    22    2
    40    21    40    1
    41    22    23    1
    42    22    24    1
    43    24    25    2
    44    26    41    1
@<TRIPOS>SUBSTRUCTURE
     1 ZINC000541252362        1 TEMP              0 ****  ****    0 ROOT


##########                                Name:    ZINC001139743874
##########                DOCK_Rotatable_Bonds:                   5
##########                         Heavy_Atoms:                  28
##########                    Molecular_Weight:             382.506
##########                DOCK_Rotatable_Bonds:                   5
##########                       Formal_Charge:           0.0199992
##########                     HBond_Acceptors:                   6
##########                        HBond_Donors:                   0
##########                         Heavy_Atoms:                  28
##########                          Grid_Score:          -30.017143
##########                     Grid_vdw_energy:          -29.632067
##########                      Grid_es_energy:           -0.385076
##########           Internal_energy_repulsive:           19.535545

@<TRIPOS>MOLECULE
ZINC001139743874
 58 61 1 0 0
SMALL
USER_CHARGES


@<TRIPOS>ATOM
      1 C1        -11.4095    4.3710   65.6345 C.3     1  ZINC001139743874   -0.1800
      2 C2        -10.6679    3.6217   64.5256 C.3     1  ZINC001139743874    0.1400
      3 C3         -9.5189    4.4876   64.0052 C.3     1  ZINC001139743874   -0.1800
      4 C4        -10.1075    2.3114   65.0822 C.3     1  ZINC001139743874   -0.1400
      5 O5        -11.5865    3.3325   63.4390 O.3     1  ZINC001139743874   -0.3600
      6 C6        -11.0535    3.1806   62.2120 C.2     1  ZINC001139743874    0.6500
      7 O7        -10.7216    4.1567   61.5688 O.2     1  ZINC001139743874   -0.5700
      8 N8        -10.8882    1.9461   61.6971 N.am    1  ZINC001139743874   -0.5900
      9 C9        -10.3243    1.7668   60.3968 C.3     1  ZINC001139743874    0.1000
     10 C10       -11.3263    1.8425   59.2098 C.3     1  ZINC001139743874   -0.1300
     11 C11       -12.6457    1.1177   59.6038 C.3     1  ZINC001139743874   -0.0900
     12 C12       -12.3844   -0.1140   60.4070 C.3     1  ZINC001139743874   -0.0800
     13 C13       -13.1505   -1.3694   59.9735 C.3     1  ZINC001139743874    0.0100
     14 N14       -11.9534   -1.6919   59.1636 N.3     1  ZINC001139743874   -0.4700
     15 C15       -11.6157   -3.1178   59.2682 C.3     1  ZINC001139743874    0.0600
     16 C16       -10.1943   -3.3319   58.8157 C.ar    1  ZINC001139743874   -0.1200
     17 C17        -9.1699   -3.4222   59.7560 C.ar    1  ZINC001139743874    0.1500
     18 N18        -7.9224   -3.6082   59.3979 N.ar    1  ZINC001139743874   -0.4600
     19 C19        -7.5792   -3.7199   58.1126 C.ar    1  ZINC001139743874    0.0800
     20 C20        -6.2374   -3.9203   57.7309 C.ar    1  ZINC001139743874   -0.0400
     21 C21        -5.9536   -4.0266   56.4001 C.ar    1  ZINC001139743874   -0.1600
     22 C22        -6.9783   -3.9361   55.4594 C.ar    1  ZINC001139743874    0.1300
     23 N23        -8.2255   -3.7497   55.8173 N.ar    1  ZINC001139743874   -0.4700
     24 C24        -8.5688   -3.6381   57.1029 C.ar    1  ZINC001139743874    0.0800
     25 C25        -9.9110   -3.4430   57.4847 C.ar    1  ZINC001139743874   -0.0400
     26 C26       -11.1010   -0.8776   60.0600 C.3     1  ZINC001139743874    0.0000
     27 C27       -12.5250    0.2056   61.8985 C.3     1  ZINC001139743874   -0.1300
     28 C28       -11.2856    0.7319   62.4775 C.3     1  ZINC001139743874    0.1400
     29 H29       -11.8088    5.3045   65.2380 H       1  ZINC001139743874    0.0900
     30 H30       -12.2280    3.7541   66.0052 H       1  ZINC001139743874    0.0600
     31 H31       -10.7200    4.5881   66.4502 H       1  ZINC001139743874    0.0700
     32 H32        -8.8293    4.7048   64.8210 H       1  ZINC001139743874    0.0700
     33 H33        -8.9905    3.9538   63.2153 H       1  ZINC001139743874    0.0600
     34 H34        -9.9182    5.4212   63.6087 H       1  ZINC001139743874    0.0900
     35 H35       -10.9261    1.6944   65.4529 H       1  ZINC001139743874    0.0700
     36 H36        -9.5792    1.7776   64.2922 H       1  ZINC001139743874    0.0700
     37 H37        -9.4179    2.5285   65.8980 H       1  ZINC001139743874    0.0800
     38 H38        -9.5609    2.5305   60.2480 H       1  ZINC001139743874    0.0700
     39 H39        -9.8352    0.7931   60.3687 H       1  ZINC001139743874    0.0900
     40 H40       -11.5393    2.8864   58.9794 H       1  ZINC001139743874    0.0700
     41 H41       -10.8918    1.3577   58.3355 H       1  ZINC001139743874    0.0800
     42 H42       -13.2636    1.7987   60.1891 H       1  ZINC001139743874    0.0600
     43 H43       -13.1841    0.8425   58.6969 H       1  ZINC001139743874    0.0700
     44 H44       -13.3358   -2.0736   60.7845 H       1  ZINC001139743874    0.0700
     45 H45       -14.0398   -1.1587   59.3794 H       1  ZINC001139743874    0.0900
     46 H46       -11.7198   -3.4408   60.3040 H       1  ZINC001139743874    0.0600
     47 H47       -12.2892   -3.6979   58.6372 H       1  ZINC001139743874    0.0900
     48 H48        -9.4094   -3.3366   60.8056 H       1  ZINC001139743874    0.1700
     49 H49        -5.4544   -3.9877   58.4718 H       1  ZINC001139743874    0.1500
     50 H50        -4.9350   -4.1806   56.0757 H       1  ZINC001139743874    0.1500
     51 H51        -6.7388   -4.0214   54.4097 H       1  ZINC001139743874    0.1700
     52 H52       -10.6943   -3.3792   56.7439 H       1  ZINC001139743874    0.1400
     53 H53       -10.3595   -0.2757   59.5347 H       1  ZINC001139743874    0.1000
     54 H54       -10.6823   -1.4369   60.8966 H       1  ZINC001139743874    0.0700
     55 H55       -13.3176    0.9426   62.0282 H       1  ZINC001139743874    0.0700
     56 H56       -12.8021   -0.7049   62.4298 H       1  ZINC001139743874    0.0800
     57 H57       -10.5017   -0.0230   62.4154 H       1  ZINC001139743874    0.0800
     58 H58       -11.4533    1.0030   63.5198 H       1  ZINC001139743874    0.1000
@<TRIPOS>BOND
     1     1     2    1
     2     1    29    1
     3     1    30    1
     4     1    31    1
     5     2     3    1
     6     2     4    1
     7     2     5    1
     8     3    32    1
     9     3    33    1
    10     3    34    1
    11     4    35    1
    12     4    36    1
    13     4    37    1
    14     5     6    1
    15     6     7    2
    16     6     8   am
    17     8    28    1
    18     8     9    1
    19     9    10    1
    20     9    38    1
    21     9    39    1
    22    10    11    1
    23    10    40    1
    24    10    41    1
    25    11    12    1
    26    11    42    1
    27    11    43    1
    28    12    26    1
    29    12    13    1
    30    12    27    1
    31    13    14    1
    32    13    44    1
    33    13    45    1
    34    14    15    1
    35    14    26    1
    36    15    16    1
    37    15    46    1
    38    15    47    1
    39    16    25   ar
    40    16    17   ar
    41    17    18   ar
    42    17    48    1
    43    18    19   ar
    44    19    24   ar
    45    19    20   ar
    46    20    21   ar
    47    20    49    1
    48    21    22   ar
    49    21    50    1
    50    22    23   ar
    51    22    51    1
    52    23    24   ar
    53    24    25   ar
    54    25    52    1
    55    26    53    1
    56    26    54    1
    57    27    28    1
    58    27    55    1
    59    27    56    1
    60    28    57    1
    61    28    58    1
@<TRIPOS>SUBSTRUCTURE
     1 ZINC001139743874        1 TEMP              0 ****  ****    0 ROOT


##########                                Name:    ZINC000550952205
##########                DOCK_Rotatable_Bonds:                   7
##########                         Heavy_Atoms:                  28
##########                    Molecular_Weight:             407.484
##########                DOCK_Rotatable_Bonds:                   7
##########                       Formal_Charge:        -2.68221e-07
##########                     HBond_Acceptors:                   8
##########                        HBond_Donors:                   2
##########                         Heavy_Atoms:                  28
##########                          Grid_Score:          -30.012104
##########                     Grid_vdw_energy:          -28.153635
##########                      Grid_es_energy:           -1.858468
##########           Internal_energy_repulsive:            5.920852

@<TRIPOS>MOLECULE
ZINC000550952205
 51 54 1 0 0
SMALL
USER_CHARGES


@<TRIPOS>ATOM
      1 O1        -14.7187    0.3052   61.4925 O.2     1  ZINC000550952205   -0.5100
      2 C2        -13.7514    0.8722   61.0281 C.2     1  ZINC000550952205    0.5100
      3 N3        -13.5328    2.1721   61.3094 N.am    1  ZINC000550952205   -0.7000
      4 C4        -14.4661    2.9021   62.1710 C.3     1  ZINC000550952205    0.1200
      5 C5        -13.7125    4.0002   62.9240 C.3     1  ZINC000550952205   -0.0900
      6 H6        -14.4034    4.5408   63.5712 H       1  ZINC000550952205    0.1000
      7 C7        -12.6189    3.3848   63.7543 C.3     1  ZINC000550952205   -0.1300
      8 C8        -12.3817    4.1445   65.0734 C.3     1  ZINC000550952205   -0.1200
      9 C9        -12.4195    5.6745   64.8969 C.3     1  ZINC000550952205   -0.1300
     10 C10       -11.7075    6.1281   63.6513 C.3     1  ZINC000550952205   -0.1500
     11 C11       -12.7426    6.2588   62.5153 C.3     1  ZINC000550952205    0.3000
     12 F12       -13.9108    6.8308   63.0306 F       1  ZINC000550952205   -0.2000
     13 F13       -12.2250    7.1008   61.5253 F       1  ZINC000550952205   -0.2000
     14 C14       -13.0761    4.9775   61.9146 C.3     1  ZINC000550952205   -0.1700
     15 C15       -12.8001    0.1282   60.1499 C.2     1  ZINC000550952205    0.5100
     16 O16       -11.8232    0.6907   59.6994 O.2     1  ZINC000550952205   -0.4900
     17 N17       -13.0260   -1.1679   59.8575 N.am    1  ZINC000550952205   -0.6400
     18 C18       -12.1355   -1.8645   59.0354 C.ar    1  ZINC000550952205    0.1500
     19 C19       -12.5675   -2.3735   57.8118 C.ar    1  ZINC000550952205   -0.1200
     20 C20       -11.7118   -3.0535   57.0010 C.ar    1  ZINC000550952205   -0.0400
     21 C21       -10.3703   -3.2561   57.3845 C.ar    1  ZINC000550952205    0.0800
     22 N22        -9.3782   -3.8940   56.7338 N.2     1  ZINC000550952205   -0.4700
     23 C23        -8.2306   -3.9448   57.2961 C.2     1  ZINC000550952205    0.1200
     24 C24        -7.0227   -4.6190   56.6981 C.3     1  ZINC000550952205   -0.1100
     25 C25        -6.4398   -4.0180   55.4174 C.3     1  ZINC000550952205   -0.1500
     26 C26        -5.6949   -3.8605   56.7445 C.3     1  ZINC000550952205   -0.1500
     27 S27        -8.2377   -3.1529   58.8076 S.3     1  ZINC000550952205    0.1200
     28 C28        -9.9393   -2.7432   58.6137 C.ar    1  ZINC000550952205   -0.1700
     29 C29       -10.8222   -2.0446   59.4326 C.ar    1  ZINC000550952205   -0.0700
     30 H30       -12.7575    2.6243   60.9415 H       1  ZINC000550952205    0.4200
     31 H31       -15.2487    3.3519   61.5600 H       1  ZINC000550952205    0.0800
     32 H32       -14.9147    2.2131   62.8866 H       1  ZINC000550952205    0.0800
     33 H33       -12.8885    2.3540   63.9845 H       1  ZINC000550952205    0.0700
     34 H34       -11.6948    3.3848   63.1763 H       1  ZINC000550952205    0.0700
     35 H35       -13.1506    3.8542   65.7895 H       1  ZINC000550952205    0.0700
     36 H36       -11.4079    3.8606   65.4724 H       1  ZINC000550952205    0.0700
     37 H37       -13.4591    5.9982   64.8465 H       1  ZINC000550952205    0.0800
     38 H38       -11.9484    6.1411   65.7621 H       1  ZINC000550952205    0.0700
     39 H39       -11.2363    7.0946   63.8302 H       1  ZINC000550952205    0.0900
     40 H40       -10.9506    5.3943   63.3744 H       1  ZINC000550952205    0.1000
     41 H41       -12.1664    4.5255   61.5193 H       1  ZINC000550952205    0.1000
     42 H42       -13.7717    5.1437   61.0920 H       1  ZINC000550952205    0.1000
     43 H43       -13.8064   -1.6175   60.2176 H       1  ZINC000550952205    0.4300
     44 H44       -13.5924   -2.2270   57.5040 H       1  ZINC000550952205    0.1400
     45 H45       -12.0633   -3.4415   56.0564 H       1  ZINC000550952205    0.1400
     46 H46        -6.9873   -5.7030   56.8072 H       1  ZINC000550952205    0.1300
     47 H47        -6.0208   -4.7066   54.6837 H       1  ZINC000550952205    0.1000
     48 H48        -6.9299   -3.1349   55.0075 H       1  ZINC000550952205    0.1100
     49 H49        -5.6947   -2.8738   57.2077 H       1  ZINC000550952205    0.1000
     50 H50        -4.7856   -4.4454   56.8839 H       1  ZINC000550952205    0.1100
     51 H51       -10.4834   -1.6462   60.3774 H       1  ZINC000550952205    0.1400
@<TRIPOS>BOND
     1     1     2    2
     2     2     3   am
     3     2    15    1
     4     3     4    1
     5     3    30    1
     6     4     5    1
     7     4    31    1
     8     4    32    1
     9     5     6    1
    10     5    14    1
    11     5     7    1
    12     7     8    1
    13     7    33    1
    14     7    34    1
    15     8     9    1
    16     8    35    1
    17     8    36    1
    18     9    10    1
    19     9    37    1
    20     9    38    1
    21    10    11    1
    22    10    39    1
    23    10    40    1
    24    11    12    1
    25    11    13    1
    26    11    14    1
    27    14    41    1
    28    14    42    1
    29    15    16    2
    30    15    17   am
    31    17    18    1
    32    17    43    1
    33    18    29   ar
    34    18    19   ar
    35    19    20   ar
    36    19    44    1
    37    20    21   ar
    38    20    45    1
    39    21    28   ar
    40    21    22    1
    41    22    23    2
    42    23    24    1
    43    23    27    1
    44    24    26    1
    45    24    25    1
    46    24    46    1
    47    25    26    1
    48    25    47    1
    49    25    48    1
    50    26    49    1
    51    26    50    1
    52    27    28    1
    53    28    29   ar
    54    29    51    1
@<TRIPOS>SUBSTRUCTURE
     1 ZINC000550952205        1 TEMP              0 ****  ****    0 ROOT


##########                                Name:    ZINC000566738344
##########                DOCK_Rotatable_Bonds:                   5
##########                         Heavy_Atoms:                  23
##########                    Molecular_Weight:             352.478
##########                DOCK_Rotatable_Bonds:                   5
##########                       Formal_Charge:           0.0100005
##########                     HBond_Acceptors:                   7
##########                        HBond_Donors:                   0
##########                         Heavy_Atoms:                  23
##########                          Grid_Score:          -30.002399
##########                     Grid_vdw_energy:          -27.914862
##########                      Grid_es_energy:           -2.087537
##########           Internal_energy_repulsive:           19.800198

@<TRIPOS>MOLECULE
ZINC000566738344
 43 44 1 0 0
SMALL
USER_CHARGES


@<TRIPOS>ATOM
      1 C1         -6.7380   -3.6132   58.6206 C.3     1  ZINC000566738344   -0.1300
      2 C2         -8.1585   -3.5946   58.1176 C.ar    1  ZINC000566738344   -0.0100
      3 C3         -9.1921   -3.3206   58.9834 C.ar    1  ZINC000566738344   -0.1000
      4 C4        -10.5052   -3.3038   58.5194 C.ar    1  ZINC000566738344   -0.0500
      5 S5        -11.8261   -2.9531   59.6315 S.3     1  ZINC000566738344   -0.0300
      6 C6        -12.1418   -1.1895   59.3470 C.3     1  ZINC000566738344   -0.1200
      7 H7        -11.3363   -0.7686   58.7452 H       1  ZINC000566738344    0.1200
      8 C8        -13.4712   -1.0220   58.6085 C.3     1  ZINC000566738344   -0.1300
      9 C9        -12.2082   -0.4712   60.6702 C.2     1  ZINC000566738344    0.5200
     10 O10       -13.2631   -0.3877   61.2626 O.2     1  ZINC000566738344   -0.5000
     11 N11       -11.0952    0.0783   61.1952 N.am    1  ZINC000566738344   -0.6000
     12 C12        -9.8212   -0.0209   60.4788 C.3     1  ZINC000566738344    0.0600
     13 C13       -11.1593    0.7750   62.4824 C.3     1  ZINC000566738344    0.1500
     14 H14       -11.3926    0.0624   63.2735 H       1  ZINC000566738344    0.1300
     15 C15        -9.8065    1.4477   62.7744 C.3     1  ZINC000566738344   -0.1300
     16 C16       -10.0423    2.4230   63.9565 C.3     1  ZINC000566738344   -0.5900
     17 S17       -11.6437    3.2001   63.5192 S.o2    1  ZINC000566738344    2.4000
     18 O18       -12.4636    3.2729   64.6773 O.2     1  ZINC000566738344   -0.9300
     19 O19       -11.4046    4.3685   62.7466 O.2     1  ZINC000566738344   -0.9300
     20 C20       -12.2487    1.8645   62.4284 C.3     1  ZINC000566738344   -0.6200
     21 C21       -10.7763   -3.5632   57.1785 C.ar    1  ZINC000566738344   -0.1400
     22 C22        -9.7468   -3.8379   56.3075 C.ar    1  ZINC000566738344   -0.0400
     23 C23        -8.4270   -3.8503   56.7691 C.ar    1  ZINC000566738344   -0.0400
     24 C24        -7.3535   -4.1358   55.8653 C.1     1  ZINC000566738344    0.2500
     25 N25        -6.5018   -4.3623   55.1484 N.1     1  ZINC000566738344   -0.4100
     26 H26        -6.3091   -2.6148   58.5345 H       1  ZINC000566738344    0.0800
     27 H27        -6.7265   -3.9247   59.6650 H       1  ZINC000566738344    0.0800
     28 H28        -6.1512   -4.3132   58.0260 H       1  ZINC000566738344    0.0700
     29 H29        -8.9851   -3.1187   60.0239 H       1  ZINC000566738344    0.1400
     30 H30       -14.2868   -1.3616   59.2469 H       1  ZINC000566738344    0.0800
     31 H31       -13.6185    0.0289   58.3593 H       1  ZINC000566738344    0.0800
     32 H32       -13.4555   -1.6137   57.6933 H       1  ZINC000566738344    0.0900
     33 H33        -9.7105    0.8357   59.8139 H       1  ZINC000566738344    0.0700
     34 H34        -9.0008   -0.0322   61.1963 H       1  ZINC000566738344    0.0800
     35 H35        -9.8043   -0.9400   59.8931 H       1  ZINC000566738344    0.0800
     36 H36        -9.0680    0.6958   63.0526 H       1  ZINC000566738344    0.1100
     37 H37        -9.4668    1.9990   61.8977 H       1  ZINC000566738344    0.0900
     38 H38       -10.1206    1.8787   64.8975 H       1  ZINC000566738344    0.1400
     39 H39        -9.2502    3.1703   64.0054 H       1  ZINC000566738344    0.1400
     40 H40       -12.3677    2.2327   61.4094 H       1  ZINC000566738344    0.1400
     41 H41       -13.1936    1.4697   62.8019 H       1  ZINC000566738344    0.1500
     42 H42       -11.7956   -3.5490   56.8217 H       1  ZINC000566738344    0.1200
     43 H43        -9.9578   -4.0393   55.2676 H       1  ZINC000566738344    0.1400
@<TRIPOS>BOND
     1     1     2    1
     2     1    26    1
     3     1    27    1
     4     1    28    1
     5     2    23   ar
     6     2     3   ar
     7     3     4   ar
     8     3    29    1
     9     4     5    1
    10     4    21   ar
    11     5     6    1
    12     6     7    1
    13     6     8    1
    14     6     9    1
    15     8    30    1
    16     8    31    1
    17     8    32    1
    18     9    10    2
    19     9    11   am
    20    11    12    1
    21    11    13    1
    22    12    33    1
    23    12    34    1
    24    12    35    1
    25    13    14    1
    26    13    20    1
    27    13    15    1
    28    15    16    1
    29    15    36    1
    30    15    37    1
    31    16    17    1
    32    16    38    1
    33    16    39    1
    34    17    18    2
    35    17    19    2
    36    17    20    1
    37    20    40    1
    38    20    41    1
    39    21    22   ar
    40    21    42    1
    41    22    23   ar
    42    22    43    1
    43    23    24    1
    44    24    25    3
@<TRIPOS>SUBSTRUCTURE
     1 ZINC000566738344        1 TEMP              0 ****  ****    0 ROOT


##########                                Name:    ZINC000655982608
##########                DOCK_Rotatable_Bonds:                   5
##########                         Heavy_Atoms:                  29
##########                    Molecular_Weight:             388.469
##########                DOCK_Rotatable_Bonds:                   5
##########                       Formal_Charge:          -0.0200006
##########                     HBond_Acceptors:                   6
##########                        HBond_Donors:                   0
##########                         Heavy_Atoms:                  29
##########                          Grid_Score:          -29.982683
##########                     Grid_vdw_energy:          -29.303024
##########                      Grid_es_energy:           -0.679659
##########           Internal_energy_repulsive:           52.041145

@<TRIPOS>MOLECULE
ZINC000655982608
 53 57 1 0 0
SMALL
USER_CHARGES


@<TRIPOS>ATOM
      1 C1        -14.7872    3.0068   62.4707 C.3     1  ZINC000655982608   -0.1900
      2 C2        -13.4948    2.1922   62.3858 C.3     1  ZINC000655982608    0.0800
      3 H3        -13.6247    1.2485   62.9156 H       1  ZINC000655982608    0.1000
      4 C4        -13.1641    1.9121   60.9184 C.3     1  ZINC000655982608   -0.0300
      5 C5        -13.1305    0.4235   60.6864 C.2     1  ZINC000655982608    0.2000
      6 N6        -12.3362   -0.2213   59.8662 N.2     1  ZINC000655982608   -0.4800
      7 C7        -12.6627   -1.5199   59.9921 C.2     1  ZINC000655982608    0.1700
      8 C8        -12.0325   -2.6735   59.2551 C.3     1  ZINC000655982608   -0.0100
      9 H9        -12.3789   -3.6260   59.6563 H       1  ZINC000655982608    0.1300
     10 C10       -12.3106   -2.5785   57.7370 C.3     1  ZINC000655982608   -0.1400
     11 C11       -11.0325   -3.0703   57.0942 C.2     1  ZINC000655982608    0.5200
     12 O12       -10.9257   -3.4168   55.9368 O.2     1  ZINC000655982608   -0.5000
     13 N13       -10.0323   -3.0669   57.9923 N.am    1  ZINC000655982608   -0.5600
     14 C14        -8.7223   -3.4738   57.7165 C.ar    1  ZINC000655982608    0.1600
     15 C15        -8.4360   -4.1430   56.5337 C.ar    1  ZINC000655982608   -0.1600
     16 C16        -7.1419   -4.5434   56.2644 C.ar    1  ZINC000655982608   -0.0900
     17 C17        -6.1320   -4.2790   57.1711 C.ar    1  ZINC000655982608   -0.1400
     18 C18        -6.4137   -3.6133   58.3499 C.ar    1  ZINC000655982608   -0.0900
     19 C19        -7.7046   -3.2044   58.6221 C.ar    1  ZINC000655982608   -0.1600
     20 C20       -10.4911   -2.5824   59.3001 C.3     1  ZINC000655982608    0.1100
     21 N21       -13.6212   -1.5972   60.8661 N.2     1  ZINC000655982608   -0.3700
     22 O22       -13.9008   -0.4923   61.2815 O.3     1  ZINC000655982608    0.0900
     23 N23       -12.3966    2.9509   62.9991 N.3     1  ZINC000655982608   -0.4700
     24 C24       -12.8467    3.6313   64.2329 C.3     1  ZINC000655982608    0.0300
     25 C25       -11.5636    3.6518   65.0951 C.3     1  ZINC000655982608   -0.0800
     26 C26       -10.7807    2.4686   64.5617 C.ar    1  ZINC000655982608   -0.1400
     27 C27        -9.7061    1.7756   65.0772 C.ar    1  ZINC000655982608   -0.0800
     28 C28        -9.1698    0.7083   64.3790 C.ar    1  ZINC000655982608   -0.1400
     29 C29        -9.7138    0.3374   63.1632 C.ar    1  ZINC000655982608   -0.0900
     30 C30       -10.7877    1.0290   62.6420 C.ar    1  ZINC000655982608   -0.1400
     31 C31       -11.3315    2.1072   63.3377 C.ar    1  ZINC000655982608    0.1000
     32 H32       -15.6220    2.4015   62.1177 H       1  ZINC000655982608    0.0700
     33 H33       -14.9637    3.3013   63.5052 H       1  ZINC000655982608    0.0700
     34 H34       -14.6964    3.8980   61.8497 H       1  ZINC000655982608    0.0700
     35 H35       -13.9260    2.3620   60.2819 H       1  ZINC000655982608    0.1200
     36 H36       -12.1907    2.3394   60.6775 H       1  ZINC000655982608    0.1100
     37 H37       -13.1476   -3.2202   57.4616 H       1  ZINC000655982608    0.1200
     38 H38       -12.5095   -1.5461   57.4495 H       1  ZINC000655982608    0.1200
     39 H39        -9.2246   -4.3505   55.8256 H       1  ZINC000655982608    0.1200
     40 H40        -6.9187   -5.0638   55.3448 H       1  ZINC000655982608    0.1300
     41 H41        -5.1209   -4.5933   56.9582 H       1  ZINC000655982608    0.1200
     42 H42        -5.6229   -3.4087   59.0563 H       1  ZINC000655982608    0.1300
     43 H43        -7.9241   -2.6845   59.5430 H       1  ZINC000655982608    0.1500
     44 H44       -10.1791   -1.5489   59.4501 H       1  ZINC000655982608    0.0900
     45 H45       -10.0978   -3.2151   60.0958 H       1  ZINC000655982608    0.1000
     46 H46       -13.1822    4.6453   64.0148 H       1  ZINC000655982608    0.1000
     47 H47       -13.6339    3.0598   64.7245 H       1  ZINC000655982608    0.0700
     48 H48       -11.0118    4.5796   64.9441 H       1  ZINC000655982608    0.0900
     49 H49       -11.8045    3.5119   66.1489 H       1  ZINC000655982608    0.0800
     50 H50        -9.2821    2.0664   66.0270 H       1  ZINC000655982608    0.1200
     51 H51        -8.3276    0.1661   64.7828 H       1  ZINC000655982608    0.1200
     52 H52        -9.2961   -0.4968   62.6192 H       1  ZINC000655982608    0.1300
     53 H53       -11.2077    0.7345   61.6916 H       1  ZINC000655982608    0.1200
@<TRIPOS>BOND
     1     1     2    1
     2     1    32    1
     3     1    33    1
     4     1    34    1
     5     2     3    1
     6     2     4    1
     7     2    23    1
     8     4     5    1
     9     4    35    1
    10     4    36    1
    11     5    22    1
    12     5     6    2
    13     6     7    1
    14     7     8    1
    15     7    21    2
    16     8     9    1
    17     8    20    1
    18     8    10    1
    19    10    11    1
    20    10    37    1
    21    10    38    1
    22    11    12    2
    23    11    13   am
    24    13    14    1
    25    13    20    1
    26    14    19   ar
    27    14    15   ar
    28    15    16   ar
    29    15    39    1
    30    16    17   ar
    31    16    40    1
    32    17    18   ar
    33    17    41    1
    34    18    19   ar
    35    18    42    1
    36    19    43    1
    37    20    44    1
    38    20    45    1
    39    21    22    1
    40    23    31    1
    41    23    24    1
    42    24    25    1
    43    24    46    1
    44    24    47    1
    45    25    26    1
    46    25    48    1
    47    25    49    1
    48    26    31   ar
    49    26    27   ar
    50    27    28   ar
    51    27    50    1
    52    28    29   ar
    53    28    51    1
    54    29    30   ar
    55    29    52    1
    56    30    31   ar
    57    30    53    1
@<TRIPOS>SUBSTRUCTURE
     1 ZINC000655982608        1 TEMP              0 ****  ****    0 ROOT


##########                                Name:    ZINC000179496896
##########                DOCK_Rotatable_Bonds:                   8
##########                         Heavy_Atoms:                  27
##########                    Molecular_Weight:             396.504
##########                DOCK_Rotatable_Bonds:                   8
##########                       Formal_Charge:          0.00999944
##########                     HBond_Acceptors:                   8
##########                        HBond_Donors:                   1
##########                         Heavy_Atoms:                  27
##########                          Grid_Score:          -29.968300
##########                     Grid_vdw_energy:          -29.591280
##########                      Grid_es_energy:           -0.377021
##########           Internal_energy_repulsive:           25.976963

@<TRIPOS>MOLECULE
ZINC000179496896
 53 55 1 0 0
SMALL
USER_CHARGES


@<TRIPOS>ATOM
      1 C1         -7.8644    4.3355   52.0527 C.3     1  ZINC000179496896   -0.1500
      2 C2         -7.6187    3.8921   53.4963 C.3     1  ZINC000179496896   -0.1100
      3 C3         -6.1768    3.4013   53.6407 C.3     1  ZINC000179496896   -0.1400
      4 C4         -7.8522    5.0737   54.4396 C.3     1  ZINC000179496896    0.1200
      5 N5         -7.7560    4.6165   55.8282 N.pl3   1  ZINC000179496896   -0.3300
      6 N6         -6.5746    4.4901   56.5675 N.2     1  ZINC000179496896   -0.2700
      7 C7         -6.8683    4.0576   57.7625 C.2     1  ZINC000179496896    0.0800
      8 C8         -8.2692    3.8883   57.8341 C.2     1  ZINC000179496896   -0.2500
      9 C9         -9.0351    3.4167   59.0022 C.2     1  ZINC000179496896    0.5900
     10 O10        -8.6842    3.7260   60.1247 O.2     1  ZINC000179496896   -0.5300
     11 N11       -10.1244    2.6427   58.8260 N.am    1  ZINC000179496896   -0.7100
     12 C12       -10.8845    2.1726   59.9869 C.3     1  ZINC000179496896    0.1300
     13 C13       -10.1433    1.0061   60.6433 C.3     1  ZINC000179496896    0.0700
     14 H14        -9.1026    1.2843   60.8095 H       1  ZINC000179496896    0.0900
     15 C15       -10.8023    0.6723   61.9831 C.3     1  ZINC000179496896   -0.1900
     16 N16       -10.2015   -0.1685   59.7630 N.3     1  ZINC000179496896   -0.5300
     17 C17       -11.4670   -0.8954   59.9374 C.3     1  ZINC000179496896    0.0600
     18 C18       -11.6657   -1.8483   58.7524 C.3     1  ZINC000179496896   -0.0400
     19 C19       -10.3827   -2.6284   58.5569 C.2     1  ZINC000179496896   -0.1700
     20 C20        -9.2003   -2.2824   59.1036 C.2     1  ZINC000179496896   -0.1100
     21 C21        -8.1631   -3.1517   58.7855 C.2     1  ZINC000179496896   -0.1200
     22 C22        -8.4897   -4.1755   58.0017 C.2     1  ZINC000179496896   -0.2200
     23 S23       -10.2005   -4.0933   57.6060 S.3     1  ZINC000179496896    0.1000
     24 C24        -9.0459   -1.0486   59.9824 C.3     1  ZINC000179496896    0.1200
     25 C25        -8.7871    4.2535   56.6077 C.2     1  ZINC000179496896    0.0700
     26 C26       -10.2414    4.2378   56.2132 C.3     1  ZINC000179496896    0.3400
     27 F27       -10.7686    5.5289   56.3235 F       1  ZINC000179496896   -0.1500
     28 F28       -10.3611    3.7966   54.8910 F       1  ZINC000179496896   -0.2000
     29 H29        -7.6979    3.4937   51.3806 H       1  ZINC000179496896    0.0600
     30 H30        -8.8916    4.6851   51.9499 H       1  ZINC000179496896    0.0600
     31 H31        -7.1784    5.1438   51.7992 H       1  ZINC000179496896    0.0600
     32 H32        -8.3047    3.0837   53.7497 H       1  ZINC000179496896    0.0800
     33 H33        -5.4909    4.2097   53.3873 H       1  ZINC000179496896    0.0600
     34 H34        -6.0018    3.0853   54.6691 H       1  ZINC000179496896    0.0600
     35 H35        -6.0103    2.5594   52.9687 H       1  ZINC000179496896    0.0700
     36 H36        -7.0985    5.8395   54.2563 H       1  ZINC000179496896    0.1000
     37 H37        -8.8438    5.4900   54.2621 H       1  ZINC000179496896    0.1000
     38 H38        -6.1640    3.8626   58.5578 H       1  ZINC000179496896    0.2000
     39 H39       -10.4050    2.3969   57.9306 H       1  ZINC000179496896    0.4100
     40 H40       -10.9908    2.9856   60.7050 H       1  ZINC000179496896    0.0700
     41 H41       -11.8715    1.8408   59.6648 H       1  ZINC000179496896    0.0700
     42 H42       -10.2744   -0.1587   62.4507 H       1  ZINC000179496896    0.0600
     43 H43       -10.7592    1.5439   62.6363 H       1  ZINC000179496896    0.0700
     44 H44       -11.8430    0.3941   61.8169 H       1  ZINC000179496896    0.0600
     45 H45       -11.4335   -1.4684   60.8641 H       1  ZINC000179496896    0.0400
     46 H46       -12.2929   -0.1852   59.9764 H       1  ZINC000179496896    0.0900
     47 H47       -12.4851   -2.5347   58.9652 H       1  ZINC000179496896    0.0800
     48 H48       -11.8888   -1.2752   57.8526 H       1  ZINC000179496896    0.0900
     49 H49        -7.1574   -3.0051   59.1508 H       1  ZINC000179496896    0.1400
     50 H50        -7.8079   -4.9406   57.6606 H       1  ZINC000179496896    0.1600
     51 H51        -8.1293   -0.5221   59.7161 H       1  ZINC000179496896    0.0900
     52 H52        -9.0077   -1.3480   61.0298 H       1  ZINC000179496896    0.0500
     53 H53       -10.7894    3.5641   56.8719 H       1  ZINC000179496896    0.1300
@<TRIPOS>BOND
     1     1     2    1
     2     1    29    1
     3     1    30    1
     4     1    31    1
     5     2     3    1
     6     2     4    1
     7     2    32    1
     8     3    33    1
     9     3    34    1
    10     3    35    1
    11     4     5    1
    12     4    36    1
    13     4    37    1
    14     5    25    1
    15     5     6    1
    16     6     7    2
    17     7     8    1
    18     7    38    1
    19     8     9    1
    20     8    25    2
    21     9    10    2
    22     9    11   am
    23    11    12    1
    24    11    39    1
    25    12    13    1
    26    12    40    1
    27    12    41    1
    28    13    14    1
    29    13    15    1
    30    13    16    1
    31    15    42    1
    32    15    43    1
    33    15    44    1
    34    16    24    1
    35    16    17    1
    36    17    18    1
    37    17    45    1
    38    17    46    1
    39    18    19    1
    40    18    47    1
    41    18    48    1
    42    19    23    1
    43    19    20    2
    44    20    21    1
    45    20    24    1
    46    21    22    2
    47    21    49    1
    48    22    23    1
    49    22    50    1
    50    24    51    1
    51    24    52    1
    52    25    26    1
    53    26    27    1
    54    26    28    1
    55    26    53    1
@<TRIPOS>SUBSTRUCTURE
     1 ZINC000179496896        1 TEMP              0 ****  ****    0 ROOT


##########                                Name:    ZINC000245764166
##########                DOCK_Rotatable_Bonds:                   8
##########                         Heavy_Atoms:                  26
##########                    Molecular_Weight:             359.512
##########                DOCK_Rotatable_Bonds:                   8
##########                       Formal_Charge:          -0.0100008
##########                     HBond_Acceptors:                   5
##########                        HBond_Donors:                   2
##########                         Heavy_Atoms:                  26
##########                          Grid_Score:          -29.960718
##########                     Grid_vdw_energy:          -28.988659
##########                      Grid_es_energy:           -0.972059
##########           Internal_energy_repulsive:           39.690205

@<TRIPOS>MOLECULE
ZINC000245764166
 59 61 1 0 0
SMALL
USER_CHARGES


@<TRIPOS>ATOM
      1 C1         -9.8321   -1.8511   59.6319 C.3     1  ZINC000245764166    0.0200
      2 N2        -10.5833   -2.6370   58.6440 N.3     1  ZINC000245764166   -0.5300
      3 C3         -9.9728   -3.9588   58.4485 C.3     1  ZINC000245764166    0.0600
      4 C4         -8.5636   -3.7912   57.9415 C.ar    1  ZINC000245764166   -0.0800
      5 C5         -8.3051   -3.8542   56.5850 C.ar    1  ZINC000245764166   -0.1000
      6 C6         -7.0125   -3.7005   56.1198 C.ar    1  ZINC000245764166   -0.1200
      7 C7         -5.9784   -3.4833   57.0111 C.ar    1  ZINC000245764166   -0.1200
      8 C8         -6.2370   -3.4195   58.3676 C.ar    1  ZINC000245764166   -0.1200
      9 C9         -7.5303   -3.5689   58.8324 C.ar    1  ZINC000245764166   -0.1200
     10 C10       -11.9944   -2.7612   59.0330 C.3     1  ZINC000245764166    0.0500
     11 C11       -12.8498   -1.8549   58.1454 C.3     1  ZINC000245764166    0.1900
     12 C12       -12.7876   -2.3513   56.6995 C.3     1  ZINC000245764166   -0.1600
     13 C13       -14.2996   -1.8846   58.6330 C.3     1  ZINC000245764166   -0.1500
     14 N14       -12.3399   -0.4832   58.2131 N.am    1  ZINC000245764166   -0.7400
     15 C15       -12.3668    0.1890   59.3810 C.2     1  ZINC000245764166    0.7000
     16 O16       -12.8155   -0.3426   60.3782 O.2     1  ZINC000245764166   -0.5800
     17 N17       -11.8961    1.4504   59.4436 N.am    1  ZINC000245764166   -0.7500
     18 C18       -11.9270    2.1815   60.7128 C.3     1  ZINC000245764166    0.1800
     19 H19       -11.4912    1.5603   61.4953 H       1  ZINC000245764166    0.0900
     20 C20       -13.3756    2.5013   61.0733 C.3     1  ZINC000245764166   -0.1300
     21 C21       -13.3961    3.2121   62.4310 C.3     1  ZINC000245764166   -0.1100
     22 C22       -12.6506    4.5391   62.2908 C.3     1  ZINC000245764166   -0.1100
     23 C23       -11.2224    4.3241   61.8479 C.3     1  ZINC000245764166    0.0900
     24 H24       -10.7634    5.2921   61.6471 H       1  ZINC000245764166    0.0600
     25 O25       -10.4317    3.6270   62.8200 O.3     1  ZINC000245764166   -0.3600
     26 C26        -9.2459    3.1844   62.1302 C.3     1  ZINC000245764166    0.0500
     27 C27        -9.6085    3.0449   60.6377 C.3     1  ZINC000245764166   -0.1500
     28 C28       -11.1069    3.4659   60.5741 C.3     1  ZINC000245764166   -0.1300
     29 H29       -11.3470    4.0261   59.6705 H       1  ZINC000245764166    0.1000
     30 H30        -8.7944   -1.7601   59.3108 H       1  ZINC000245764166    0.0800
     31 H31       -10.2740   -0.8585   59.7185 H       1  ZINC000245764166    0.0700
     32 H32        -9.8704   -2.3515   60.5996 H       1  ZINC000245764166    0.0200
     33 H33        -9.9561   -4.4952   59.3973 H       1  ZINC000245764166    0.0400
     34 H34       -10.5557   -4.5244   57.7216 H       1  ZINC000245764166    0.1100
     35 H35        -9.1130   -4.0238   55.8886 H       1  ZINC000245764166    0.1200
     36 H36        -6.8104   -3.7504   55.0600 H       1  ZINC000245764166    0.1200
     37 H37        -4.9684   -3.3640   56.6477 H       1  ZINC000245764166    0.1200
     38 H38        -5.4291   -3.2502   59.0639 H       1  ZINC000245764166    0.1200
     39 H39        -7.7323   -3.5190   59.8921 H       1  ZINC000245764166    0.1200
     40 H40       -12.3151   -3.7959   58.9119 H       1  ZINC000245764166    0.0400
     41 H41       -12.1115   -2.4642   60.0752 H       1  ZINC000245764166    0.1000
     42 H42       -13.1670   -3.3719   56.6492 H       1  ZINC000245764166    0.0700
     43 H43       -13.3970   -1.7055   56.0672 H       1  ZINC000245764166    0.0800
     44 H44       -11.7547   -2.3301   56.3521 H       1  ZINC000245764166    0.0500
     45 H45       -14.3620   -1.4175   59.6160 H       1  ZINC000245764166    0.0600
     46 H46       -14.9303   -1.3393   57.9309 H       1  ZINC000245764166    0.0800
     47 H47       -14.6394   -2.9182   58.6996 H       1  ZINC000245764166    0.0600
     48 H48       -11.9828   -0.0586   57.4173 H       1  ZINC000245764166    0.3900
     49 H49       -11.5370    1.8740   58.6484 H       1  ZINC000245764166    0.3900
     50 H50       -13.8066    3.1524   60.3129 H       1  ZINC000245764166    0.0600
     51 H51       -13.9497    1.5769   61.1355 H       1  ZINC000245764166    0.0700
     52 H52       -14.4269    3.3999   62.7316 H       1  ZINC000245764166    0.0700
     53 H53       -12.9026    2.5907   63.1784 H       1  ZINC000245764166    0.0700
     54 H54       -13.1624    5.1598   61.5555 H       1  ZINC000245764166    0.0800
     55 H55       -12.6523    5.0524   63.2524 H       1  ZINC000245764166    0.0700
     56 H56        -8.4507    3.9200   62.2511 H       1  ZINC000245764166    0.0600
     57 H57        -8.9252    2.2206   62.5254 H       1  ZINC000245764166    0.0800
     58 H58        -8.9977    3.7140   60.0317 H       1  ZINC000245764166    0.0800
     59 H59        -9.4871    2.0126   60.3097 H       1  ZINC000245764166    0.0800
@<TRIPOS>BOND
     1     1     2    1
     2     1    30    1
     3     1    31    1
     4     1    32    1
     5     2     3    1
     6     2    10    1
     7     3     4    1
     8     3    33    1
     9     3    34    1
    10     4     9   ar
    11     4     5   ar
    12     5     6   ar
    13     5    35    1
    14     6     7   ar
    15     6    36    1
    16     7     8   ar
    17     7    37    1
    18     8     9   ar
    19     8    38    1
    20     9    39    1
    21    10    11    1
    22    10    40    1
    23    10    41    1
    24    11    12    1
    25    11    13    1
    26    11    14    1
    27    12    42    1
    28    12    43    1
    29    12    44    1
    30    13    45    1
    31    13    46    1
    32    13    47    1
    33    14    15   am
    34    14    48    1
    35    15    16    2
    36    15    17   am
    37    17    18    1
    38    17    49    1
    39    18    19    1
    40    18    28    1
    41    18    20    1
    42    20    21    1
    43    20    50    1
    44    20    51    1
    45    21    22    1
    46    21    52    1
    47    21    53    1
    48    22    23    1
    49    22    54    1
    50    22    55    1
    51    23    24    1
    52    23    28    1
    53    23    25    1
    54    25    26    1
    55    26    27    1
    56    26    56    1
    57    26    57    1
    58    27    28    1
    59    27    58    1
    60    27    59    1
    61    28    29    1
@<TRIPOS>SUBSTRUCTURE
     1 ZINC000245764166        1 TEMP              0 ****  ****    0 ROOT


##########                                Name:    ZINC000797321835
##########                DOCK_Rotatable_Bonds:                   4
##########                         Heavy_Atoms:                  22
##########                    Molecular_Weight:             381.253
##########                DOCK_Rotatable_Bonds:                   4
##########                       Formal_Charge:           0.0200001
##########                     HBond_Acceptors:                   7
##########                        HBond_Donors:                   1
##########                         Heavy_Atoms:                  22
##########                          Grid_Score:          -29.958569
##########                     Grid_vdw_energy:          -30.172449
##########                      Grid_es_energy:            0.213880
##########           Internal_energy_repulsive:            5.517634

@<TRIPOS>MOLECULE
ZINC000797321835
 35 37 1 0 0
SMALL
USER_CHARGES


@<TRIPOS>ATOM
      1 C1        -11.6370   -3.2948   57.4740 C.3     1  ZINC000797321835    0.1000
      2 N2        -13.0596   -3.1555   57.7948 N.am    1  ZINC000797321835   -0.6000
      3 C3        -14.0049   -4.0485   57.4542 C.2     1  ZINC000797321835    0.5200
      4 O4        -13.8027   -5.0726   56.8368 O.2     1  ZINC000797321835   -0.5200
      5 C5        -15.3574   -3.5904   57.9537 C.3     1  ZINC000797321835   -0.1500
      6 C6        -15.0261   -2.5027   59.0017 C.3     1  ZINC000797321835   -0.1200
      7 C7        -13.6350   -2.0260   58.5345 C.3     1  ZINC000797321835    0.1200
      8 H8        -13.7334   -1.1628   57.8762 H       1  ZINC000797321835    0.1100
      9 C9        -12.7762   -1.6791   59.7233 C.2     1  ZINC000797321835    0.4900
     10 O10       -12.3053   -2.5613   60.4094 O.2     1  ZINC000797321835   -0.4400
     11 N11       -12.5316   -0.3883   60.0240 N.am    1  ZINC000797321835   -0.6500
     12 C12       -11.7368   -0.0672   61.1242 C.ar    1  ZINC000797321835    0.3000
     13 C13       -12.2632    0.6973   62.1662 C.ar    1  ZINC000797321835   -0.1400
     14 C14       -11.4394    0.9913   63.2374 C.ar    1  ZINC000797321835   -0.0800
     15 C15       -10.1265    0.5027   63.2093 C.ar    1  ZINC000797321835    0.1100
     16 C16        -9.2055    0.7874   64.3281 C.2     1  ZINC000797321835   -0.1400
     17 C17        -9.3348    1.8053   65.2031 C.2     1  ZINC000797321835   -0.0900
     18 C18        -8.3485    1.8678   66.1648 C.2     1  ZINC000797321835   -0.0900
     19 C19        -7.4165    0.9116   66.0829 C.2     1  ZINC000797321835   -0.2000
     20 Br20       -5.9408    0.7279   67.2511 Br      1  ZINC000797321835    0.0200
     21 S21        -7.7746   -0.1531   64.7298 S.3     1  ZINC000797321835    0.1900
     22 N22        -9.7136   -0.2180   62.1723 N.ar    1  ZINC000797321835   -0.1900
     23 N23       -10.4839   -0.4923   61.1829 N.ar    1  ZINC000797321835   -0.2200
     24 H24       -11.1341   -3.8318   58.2783 H       1  ZINC000797321835    0.0700
     25 H25       -11.5272   -3.8499   56.5424 H       1  ZINC000797321835    0.0800
     26 H26       -11.1911   -2.3064   57.3627 H       1  ZINC000797321835    0.0700
     27 H27       -15.9425   -3.1678   57.1370 H       1  ZINC000797321835    0.1100
     28 H28       -15.8926   -4.4182   58.4191 H       1  ZINC000797321835    0.1100
     29 H29       -15.7525   -1.6908   58.9641 H       1  ZINC000797321835    0.1100
     30 H30       -14.9719   -2.9295   60.0031 H       1  ZINC000797321835    0.0900
     31 H31       -12.9081    0.3174   59.4753 H       1  ZINC000797321835    0.4200
     32 H32       -13.2839    1.0492   62.1368 H       1  ZINC000797321835    0.1600
     33 H33       -11.7969    1.5795   64.0696 H       1  ZINC000797321835    0.1500
     34 H34       -10.1467    2.5158   65.1544 H       1  ZINC000797321835    0.1600
     35 H35        -8.3296    2.6322   66.9273 H       1  ZINC000797321835    0.1600
@<TRIPOS>BOND
     1     1     2    1
     2     1    24    1
     3     1    25    1
     4     1    26    1
     5     2     7    1
     6     2     3   am
     7     3     4    2
     8     3     5    1
     9     5     6    1
    10     5    27    1
    11     5    28    1
    12     6     7    1
    13     6    29    1
    14     6    30    1
    15     7     8    1
    16     7     9    1
    17     9    10    2
    18     9    11   am
    19    11    12    1
    20    11    31    1
    21    12    23   ar
    22    12    13   ar
    23    13    14   ar
    24    13    32    1
    25    14    15   ar
    26    14    33    1
    27    15    16    1
    28    15    22   ar
    29    16    21    1
    30    16    17    2
    31    17    18    1
    32    17    34    1
    33    18    19    2
    34    18    35    1
    35    19    20    1
    36    19    21    1
    37    22    23   ar
@<TRIPOS>SUBSTRUCTURE
     1 ZINC000797321835        1 TEMP              0 ****  ****    0 ROOT


##########                                Name:    ZINC000193795672
##########                DOCK_Rotatable_Bonds:                  10
##########                         Heavy_Atoms:                  23
##########                    Molecular_Weight:              332.47
##########                DOCK_Rotatable_Bonds:                  10
##########                       Formal_Charge:        -2.98023e-07
##########                     HBond_Acceptors:                   6
##########                        HBond_Donors:                   3
##########                         Heavy_Atoms:                  23
##########                          Grid_Score:          -29.942453
##########                     Grid_vdw_energy:          -29.779303
##########                      Grid_es_energy:           -0.163150
##########           Internal_energy_repulsive:           11.858644

@<TRIPOS>MOLECULE
ZINC000193795672
 47 48 1 0 0
SMALL
USER_CHARGES


@<TRIPOS>ATOM
      1 C1         -8.4398    4.6324   64.7067 C.3     1  <0>        -0.1000
      2 C2         -9.3537    3.8125   63.8327 C.ar    1  <0>        -0.2000
      3 C3         -9.7838    4.3075   62.6089 C.ar    1  <0>        -0.0300
      4 C4        -10.6217    3.5227   61.8370 C.ar    1  <0>        -0.2400
      5 C5        -11.0028    2.2715   62.3104 C.ar    1  <0>         0.4000
      6 N6        -11.8443    1.4726   61.5450 N.pl3   1  <0>        -0.7300
      7 C7        -13.2935    1.6825   61.5888 C.3     1  <0>         0.1300
      8 C8        -14.0054    0.4397   61.0507 C.3     1  <0>        -0.1400
      9 C9        -13.8389    0.3745   59.5312 C.3     1  <0>         0.1400
     10 N10       -13.3141   -0.9401   59.1534 N.am    1  <0>        -0.7500
     11 C11       -11.9843   -1.1588   59.1489 C.2     1  <0>         0.7100
     12 O12       -11.2201   -0.2656   59.4600 O.2     1  <0>        -0.5900
     13 N13       -11.5013   -2.3677   58.7998 N.am    1  <0>        -0.7400
     14 C14       -10.0557   -2.6049   58.7932 C.3     1  <0>         0.1700
     15 H15        -9.5524   -1.7686   58.3079 H       1  <0>         0.0900
     16 C16        -9.5539   -2.7364   60.2326 C.3     1  <0>        -0.1700
     17 C17        -9.7540   -3.8952   58.0281 C.3     1  <0>        -0.0600
     18 C18        -8.4069   -3.7810   57.3623 C.2     1  <0>        -0.1700
     19 C19        -8.1926   -3.8321   56.0467 C.2     1  <0>        -0.1400
     20 C20        -6.8679   -3.7036   55.6662 C.2     1  <0>        -0.1300
     21 C21        -6.0064   -3.5482   56.6727 C.2     1  <0>        -0.2100
     22 S22        -6.8777   -3.5524   58.2006 S.3     1  <0>         0.0900
     23 N23       -10.5707    1.8345   63.4833 N.ar    1  <0>        -0.5400
     24 C24        -9.7671    2.5593   64.2384 C.ar    1  <0>         0.1500
     25 H25        -7.4024    4.4112   64.4560 H       1  <0>         0.0700
     26 H26        -8.6351    5.6923   64.5431 H       1  <0>         0.0600
     27 H27        -8.6210    4.3868   65.7531 H       1  <0>         0.0700
     28 H28        -9.4715    5.2834   62.2674 H       1  <0>         0.1300
     29 H29       -10.9755    3.8769   60.8800 H       1  <0>         0.1300
     30 H30       -11.4719    0.7760   60.9818 H       1  <0>         0.4000
     31 H31       -13.6037    1.8617   62.6183 H       1  <0>         0.0700
     32 H32       -13.5545    2.5448   60.9754 H       1  <0>         0.0700
     33 H33       -13.5708   -0.4521   61.5024 H       1  <0>         0.0800
     34 H34       -15.0656    0.4925   61.2981 H       1  <0>         0.0800
     35 H35       -14.8057    0.5309   59.0527 H       1  <0>         0.0700
     36 H36       -13.1440    1.1496   59.2082 H       1  <0>         0.0700
     37 H37       -13.9237   -1.6530   58.9064 H       1  <0>         0.4000
     38 H38       -12.1109   -3.0806   58.5527 H       1  <0>         0.3900
     39 H39       -10.0571   -3.5727   60.7178 H       1  <0>         0.0600
     40 H40        -8.4783   -2.9130   60.2277 H       1  <0>         0.0700
     41 H41        -9.7687   -1.8173   60.7776 H       1  <0>         0.0700
     42 H42        -9.7464   -4.7357   58.7219 H       1  <0>         0.1000
     43 H43       -10.5212   -4.0562   57.2707 H       1  <0>         0.0800
     44 H44        -8.9920   -3.9639   55.3326 H       1  <0>         0.1400
     45 H45        -6.5554   -3.7277   54.6326 H       1  <0>         0.1400
     46 H46        -4.9379   -3.4336   56.5656 H       1  <0>         0.1600
     47 H47        -9.4348    2.1703   65.1895 H       1  <0>         0.1500
@<TRIPOS>BOND
     1     1     2    1
     2     1    25    1
     3     1    26    1
     4     1    27    1
     5     2    24   ar
     6     2     3   ar
     7     3     4   ar
     8     3    28    1
     9     4     5   ar
    10     4    29    1
    11     5     6    1
    12     5    23   ar
    13     6     7    1
    14     6    30    1
    15     7     8    1
    16     7    31    1
    17     7    32    1
    18     8     9    1
    19     8    33    1
    20     8    34    1
    21     9    10    1
    22     9    35    1
    23     9    36    1
    24    10    11   am
    25    10    37    1
    26    11    12    2
    27    11    13   am
    28    13    14    1
    29    13    38    1
    30    14    15    1
    31    14    16    1
    32    14    17    1
    33    16    39    1
    34    16    40    1
    35    16    41    1
    36    17    18    1
    37    17    42    1
    38    17    43    1
    39    18    22    1
    40    18    19    2
    41    19    20    1
    42    19    44    1
    43    20    21    2
    44    20    45    1
    45    21    22    1
    46    21    46    1
    47    23    24   ar
    48    24    47    1
@<TRIPOS>SUBSTRUCTURE
     1 <0>         1 TEMP              0 ****  ****    0 ROOT


##########                                Name:    ZINC000441887161
##########                DOCK_Rotatable_Bonds:                   6
##########                         Heavy_Atoms:                  27
##########                    Molecular_Weight:             383.514
##########                DOCK_Rotatable_Bonds:                   6
##########                       Formal_Charge:          -0.0300002
##########                     HBond_Acceptors:                   6
##########                        HBond_Donors:                   1
##########                         Heavy_Atoms:                  27
##########                          Grid_Score:          -29.931200
##########                     Grid_vdw_energy:          -28.157835
##########                      Grid_es_energy:           -1.773365
##########           Internal_energy_repulsive:           19.859232

@<TRIPOS>MOLECULE
ZINC000441887161
 52 54 1 0 0
SMALL
USER_CHARGES


@<TRIPOS>ATOM
      1 C1        -12.9864   -3.3405   57.8967 C.3     1  ZINC000441887161   -0.1200
      2 C2        -12.3652   -2.1668   58.6092 C.ar    1  ZINC000441887161   -0.0700
      3 C3        -13.0094   -0.9441   58.6184 C.ar    1  ZINC000441887161   -0.1200
      4 C4        -12.4395    0.1327   59.2721 C.ar    1  ZINC000441887161   -0.0900
      5 C5        -11.2258   -0.0137   59.9168 C.ar    1  ZINC000441887161   -0.1100
      6 C6        -10.6044    1.1600   60.6289 C.3     1  ZINC000441887161    0.1900
      7 H7         -9.9736    0.7995   61.4416 H       1  ZINC000441887161    0.1000
      8 C8         -9.7550    1.9637   59.6422 C.3     1  ZINC000441887161    0.1000
      9 N9         -9.2158    3.1486   60.3143 N.pl3   1  ZINC000441887161   -0.4600
     10 C10        -8.9033    3.2573   61.6425 C.2     1  ZINC000441887161   -0.0500
     11 C11        -8.4410    4.5078   61.8329 C.2     1  ZINC000441887161   -0.0200
     12 N12        -8.4705    5.1451   60.6531 N.2     1  ZINC000441887161   -0.4900
     13 C13        -8.9287    4.3356   59.7378 C.2     1  ZINC000441887161    0.1800
     14 N14       -11.6612    2.0159   61.1737 N.am    1  ZINC000441887161   -1.1100
     15 S15       -12.2426    1.7436   62.7002 S.o2    1  ZINC000441887161    2.6900
     16 O16       -13.1309    2.8147   62.9882 O.2     1  ZINC000441887161   -0.9600
     17 O17       -12.6320    0.3777   62.7435 O.2     1  ZINC000441887161   -0.9500
     18 C18       -10.8860    1.9096   63.8123 C.ar    1  ZINC000441887161   -0.6800
     19 C19       -10.6823    3.1021   64.4808 C.ar    1  ZINC000441887161   -0.0300
     20 C20        -9.6179    3.2324   65.3533 C.ar    1  ZINC000441887161   -0.1300
     21 C21        -8.7577    2.1700   65.5576 C.ar    1  ZINC000441887161   -0.0200
     22 C22        -7.5971    2.3122   66.5083 C.3     1  ZINC000441887161   -0.1300
     23 C23        -8.9622    0.9767   64.8899 C.ar    1  ZINC000441887161   -0.1000
     24 C24        -8.0245   -0.1818   65.1130 C.3     1  ZINC000441887161   -0.1200
     25 C25       -10.0285    0.8452   64.0206 C.ar    1  ZINC000441887161   -0.0100
     26 C26       -10.5820   -1.2373   59.9088 C.ar    1  ZINC000441887161   -0.0700
     27 C27        -9.2589   -1.3971   60.6122 C.3     1  ZINC000441887161   -0.1300
     28 C28       -11.1536   -2.3147   59.2585 C.ar    1  ZINC000441887161   -0.1200
     29 H29       -13.6302   -3.8854   58.5871 H       1  ZINC000441887161    0.0700
     30 H30       -13.5779   -2.9824   57.0541 H       1  ZINC000441887161    0.0700
     31 H31       -12.2003   -4.0026   57.5335 H       1  ZINC000441887161    0.0700
     32 H32       -13.9579   -0.8296   58.1146 H       1  ZINC000441887161    0.1200
     33 H33       -12.9426    1.0884   59.2786 H       1  ZINC000441887161    0.1200
     34 H34        -8.9332    1.3448   59.2820 H       1  ZINC000441887161    0.1100
     35 H35       -10.3729    2.2737   58.7994 H       1  ZINC000441887161    0.1000
     36 H36        -9.0078    2.4882   62.3935 H       1  ZINC000441887161    0.1700
     37 H37        -8.1054    4.9243   62.7711 H       1  ZINC000441887161    0.1600
     38 H38        -9.0624    4.5770   58.6937 H       1  ZINC000441887161    0.2000
     39 H39       -12.0203    2.7421   60.6403 H       1  ZINC000441887161    0.4200
     40 H40       -11.3545    3.9322   64.3212 H       1  ZINC000441887161    0.1300
     41 H41        -9.4583    4.1645   65.8751 H       1  ZINC000441887161    0.1300
     42 H42        -7.9093    2.0155   67.5096 H       1  ZINC000441887161    0.0800
     43 H43        -6.7774    1.6735   66.1792 H       1  ZINC000441887161    0.0800
     44 H44        -7.2652    3.3503   66.5238 H       1  ZINC000441887161    0.0700
     45 H45        -8.3906   -0.7917   65.9390 H       1  ZINC000441887161    0.0800
     46 H46        -7.9741   -0.7877   64.2085 H       1  ZINC000441887161    0.0700
     47 H47        -7.0307    0.1962   65.3530 H       1  ZINC000441887161    0.0700
     48 H48       -10.1883   -0.0869   63.4991 H       1  ZINC000441887161    0.1400
     49 H49        -9.4308   -1.6996   61.6452 H       1  ZINC000441887161    0.0800
     50 H50        -8.6670   -2.1586   60.1044 H       1  ZINC000441887161    0.0700
     51 H51        -8.7218   -0.4488   60.5959 H       1  ZINC000441887161    0.0600
     52 H52       -10.6507   -3.2705   59.2524 H       1  ZINC000441887161    0.1300
@<TRIPOS>BOND
     1     1     2    1
     2     1    29    1
     3     1    30    1
     4     1    31    1
     5     2    28   ar
     6     2     3   ar
     7     3     4   ar
     8     3    32    1
     9     4     5   ar
    10     4    33    1
    11     5     6    1
    12     5    26   ar
    13     6     7    1
    14     6     8    1
    15     6    14    1
    16     8     9    1
    17     8    34    1
    18     8    35    1
    19     9    13    1
    20     9    10    1
    21    10    11    2
    22    10    36    1
    23    11    12    1
    24    11    37    1
    25    12    13    2
    26    13    38    1
    27    14    15   am
    28    14    39    1
    29    15    16    2
    30    15    17    2
    31    15    18    1
    32    18    25   ar
    33    18    19   ar
    34    19    20   ar
    35    19    40    1
    36    20    21   ar
    37    20    41    1
    38    21    22    1
    39    21    23   ar
    40    22    42    1
    41    22    43    1
    42    22    44    1
    43    23    24    1
    44    23    25   ar
    45    24    45    1
    46    24    46    1
    47    24    47    1
    48    25    48    1
    49    26    27    1
    50    26    28   ar
    51    27    49    1
    52    27    50    1
    53    27    51    1
    54    28    52    1
@<TRIPOS>SUBSTRUCTURE
     1 ZINC000441887161        1 TEMP              0 ****  ****    0 ROOT


##########                                Name:    ZINC001272744746
##########                DOCK_Rotatable_Bonds:                   6
##########                         Heavy_Atoms:                  25
##########                    Molecular_Weight:             348.417
##########                DOCK_Rotatable_Bonds:                   6
##########                       Formal_Charge:           0.0299999
##########                     HBond_Acceptors:                   6
##########                        HBond_Donors:                   1
##########                         Heavy_Atoms:                  25
##########                          Grid_Score:          -29.911757
##########                     Grid_vdw_energy:          -30.224184
##########                      Grid_es_energy:            0.312427
##########           Internal_energy_repulsive:           77.421005

@<TRIPOS>MOLECULE
ZINC001272744746
 50 52 1 0 0
SMALL
USER_CHARGES


@<TRIPOS>ATOM
      1 C1         -9.0211   -3.5229   57.9018 C.2     1  ZINC001272744746   -0.1700
      2 C2         -9.9180   -2.7837   58.5061 C.2     1  ZINC001272744746   -0.1700
      3 C3         -9.9570   -2.7263   60.0115 C.3     1  ZINC001272744746    0.1500
      4 N4        -10.6527   -1.5088   60.4359 N.am    1  ZINC001272744746   -0.6100
      5 C5         -9.9849   -0.3208   60.9843 C.3     1  ZINC001272744746    0.0700
      6 C6        -11.0217    0.8112   60.8852 C.3     1  ZINC001272744746    0.1100
      7 C7        -12.3550    0.0413   60.8846 C.3     1  ZINC001272744746   -0.1500
      8 C8        -11.9844   -1.3330   60.3682 C.2     1  ZINC001272744746    0.5200
      9 O9        -12.7742   -2.1582   59.9602 O.2     1  ZINC001272744746   -0.5200
     10 C10       -10.8495    1.5827   59.5842 C.3     1  ZINC001272744746   -0.1000
     11 C11        -9.5064    2.3205   59.6051 C.3     1  ZINC001272744746   -0.1200
     12 C12        -9.4525    3.2262   60.8386 C.3     1  ZINC001272744746   -0.1200
     13 C13        -9.6365    2.3793   62.0998 C.3     1  ZINC001272744746    0.0500
     14 N14       -10.9358    1.6941   62.0445 N.3     1  ZINC001272744746   -0.5100
     15 C15       -11.1953    0.9567   63.2883 C.3     1  ZINC001272744746    0.0800
     16 C16       -10.2161    1.3957   64.3462 C.ar    1  ZINC001272744746   -0.0200
     17 C17       -10.4729    2.5280   65.0962 C.ar    1  ZINC001272744746   -0.1700
     18 C18        -9.5760    2.9351   66.0692 C.ar    1  ZINC001272744746    0.1200
     19 F19        -9.8290    4.0422   66.8011 F       1  ZINC001272744746   -0.1200
     20 C20        -8.4177    2.2054   66.2926 C.ar    1  ZINC001272744746    0.0400
     21 O21        -7.5350    2.6029   67.2484 O.3     1  ZINC001272744746   -0.4700
     22 C22        -8.1610    1.0658   65.5373 C.ar    1  ZINC001272744746    0.1300
     23 O23        -7.0270    0.3469   65.7528 O.3     1  ZINC001272744746   -0.3000
     24 C24        -6.1424    0.8201   66.7704 C.3     1  ZINC001272744746    0.0200
     25 C25        -9.0656    0.6616   64.5683 C.ar    1  ZINC001272744746   -0.1800
     26 H26        -8.3095   -4.0912   58.4824 H       1  ZINC001272744746    0.1000
     27 H27        -8.9959   -3.5675   56.8230 H       1  ZINC001272744746    0.1000
     28 H28       -10.6296   -2.2154   57.9255 H       1  ZINC001272744746    0.1100
     29 H29       -10.4853   -3.5992   60.3948 H       1  ZINC001272744746    0.0900
     30 H30        -8.9390   -2.7176   60.4012 H       1  ZINC001272744746    0.0800
     31 H31        -9.7083   -0.4896   62.0250 H       1  ZINC001272744746    0.0700
     32 H32        -9.1021   -0.0771   60.3931 H       1  ZINC001272744746    0.0900
     33 H33       -12.7598   -0.0223   61.8947 H       1  ZINC001272744746    0.1100
     34 H34       -13.0709    0.5177   60.2147 H       1  ZINC001272744746    0.1100
     35 H35       -10.8700    0.8884   58.7442 H       1  ZINC001272744746    0.0700
     36 H36       -11.6593    2.3046   59.4795 H       1  ZINC001272744746    0.0800
     37 H37        -8.6931    1.5959   59.6490 H       1  ZINC001272744746    0.0600
     38 H38        -9.4088    2.9257   58.7038 H       1  ZINC001272744746    0.0700
     39 H39        -8.4871    3.7308   60.8773 H       1  ZINC001272744746    0.0700
     40 H40       -10.2487    3.9683   60.7797 H       1  ZINC001272744746    0.0700
     41 H41        -8.8381    1.6398   62.1605 H       1  ZINC001272744746    0.0400
     42 H42        -9.6026    3.0235   62.9783 H       1  ZINC001272744746    0.0900
     43 H43       -12.2113    1.1609   63.6264 H       1  ZINC001272744746    0.1000
     44 H44       -11.0804   -0.1121   63.1078 H       1  ZINC001272744746    0.0600
     45 H45       -11.3746    3.0964   64.9226 H       1  ZINC001272744746    0.1400
     46 H46        -7.8005    3.4042   67.7202 H       1  ZINC001272744746    0.3900
     47 H47        -6.6647    0.8368   67.7270 H       1  ZINC001272744746    0.0600
     48 H48        -5.2798    0.1573   66.8391 H       1  ZINC001272744746    0.1100
     49 H49        -5.8078    1.8271   66.5216 H       1  ZINC001272744746    0.0600
     50 H50        -8.8680   -0.2229   63.9809 H       1  ZINC001272744746    0.1400
@<TRIPOS>BOND
     1     1     2    2
     2     1    26    1
     3     1    27    1
     4     2     3    1
     5     2    28    1
     6     3     4    1
     7     3    29    1
     8     3    30    1
     9     4     8   am
    10     4     5    1
    11     5     6    1
    12     5    31    1
    13     5    32    1
    14     6    14    1
    15     6     7    1
    16     6    10    1
    17     7     8    1
    18     7    33    1
    19     7    34    1
    20     8     9    2
    21    10    11    1
    22    10    35    1
    23    10    36    1
    24    11    12    1
    25    11    37    1
    26    11    38    1
    27    12    13    1
    28    12    39    1
    29    12    40    1
    30    13    14    1
    31    13    41    1
    32    13    42    1
    33    14    15    1
    34    15    16    1
    35    15    43    1
    36    15    44    1
    37    16    25   ar
    38    16    17   ar
    39    17    18   ar
    40    17    45    1
    41    18    19    1
    42    18    20   ar
    43    20    21    1
    44    20    22   ar
    45    21    46    1
    46    22    23    1
    47    22    25   ar
    48    23    24    1
    49    24    47    1
    50    24    48    1
    51    24    49    1
    52    25    50    1
@<TRIPOS>SUBSTRUCTURE
     1 ZINC001272744746        1 TEMP              0 ****  ****    0 ROOT


##########                                Name:    ZINC000508571532
##########                DOCK_Rotatable_Bonds:                   9
##########                         Heavy_Atoms:                  30
##########                    Molecular_Weight:             422.407
##########                DOCK_Rotatable_Bonds:                   9
##########                       Formal_Charge:           0.0100001
##########                     HBond_Acceptors:                  10
##########                        HBond_Donors:                   0
##########                         Heavy_Atoms:                  30
##########                          Grid_Score:          -29.888668
##########                     Grid_vdw_energy:          -28.399967
##########                      Grid_es_energy:           -1.488701
##########           Internal_energy_repulsive:           30.037262

@<TRIPOS>MOLECULE
ZINC000508571532
 51 53 1 0 0
SMALL
USER_CHARGES


@<TRIPOS>ATOM
      1 C1        -15.1327    0.7350   51.7040 C.3     1  ZINC000508571532    0.0300
      2 O2        -15.5283    0.2166   52.9755 O.3     1  ZINC000508571532   -0.3200
      3 C3        -14.6086   -0.5189   53.6556 C.ar    1  ZINC000508571532    0.0900
      4 C4        -14.9291   -1.0576   54.8927 C.ar    1  ZINC000508571532   -0.1700
      5 C5        -13.9950   -1.8048   55.5837 C.ar    1  ZINC000508571532   -0.1100
      6 C6        -12.7368   -2.0166   55.0399 C.ar    1  ZINC000508571532    0.0900
      7 O7        -11.8171   -2.7517   55.7202 O.3     1  ZINC000508571532   -0.3100
      8 C8        -12.1568   -3.1446   57.0515 C.3     1  ZINC000508571532    0.1500
      9 C9        -11.9860   -1.9707   57.9809 C.2     1  ZINC000508571532    0.1700
     10 N10       -12.7872   -0.9490   58.0898 N.2     1  ZINC000508571532   -0.2500
     11 N11       -12.3418   -0.1324   58.9768 N.2     1  ZINC000508571532   -0.3000
     12 C12       -11.2236   -0.5931   59.4855 C.2     1  ZINC000508571532    0.3500
     13 N13       -10.4540    0.0118   60.4666 N.3     1  ZINC000508571532   -0.4600
     14 C14        -9.8517    1.2564   59.9704 C.3     1  ZINC000508571532    0.0300
     15 C15       -11.2452    0.2570   61.6797 C.3     1  ZINC000508571532    0.1100
     16 C16       -10.3212    0.4039   62.8611 C.ar    1  ZINC000508571532   -0.0900
     17 C17        -9.1427   -0.3147   62.9103 C.ar    1  ZINC000508571532   -0.0600
     18 C18        -8.2946   -0.1808   63.9943 C.ar    1  ZINC000508571532   -0.1300
     19 C19        -8.6234    0.6726   65.0309 C.ar    1  ZINC000508571532   -0.0700
     20 C20        -9.8009    1.3941   64.9863 C.ar    1  ZINC000508571532   -0.1900
     21 C21       -10.6508    1.2655   63.8976 C.ar    1  ZINC000508571532    0.1100
     22 O22       -11.8096    1.9740   63.8513 O.3     1  ZINC000508571532   -0.3100
     23 C23       -11.7089    3.3617   63.5255 C.3     1  ZINC000508571532    0.6000
     24 F24       -10.4840    3.6050   62.8947 F       1  ZINC000508571532   -0.1600
     25 F25       -12.7544    3.7160   62.6661 F       1  ZINC000508571532   -0.1300
     26 F26       -11.7896    4.1227   64.6966 F       1  ZINC000508571532   -0.1600
     27 N27       -10.9644   -1.7832   58.8704 N.pl3   1  ZINC000508571532   -0.4500
     28 C28        -9.8234   -2.6711   59.1067 C.3     1  ZINC000508571532    0.0800
     29 C29       -12.4168   -1.4790   53.8021 C.ar    1  ZINC000508571532   -0.1700
     30 C30       -13.3521   -0.7350   53.1095 C.ar    1  ZINC000508571532   -0.1100
     31 H31       -15.9571    1.3006   51.2697 H       1  ZINC000508571532    0.1000
     32 H32       -14.2701    1.3893   51.8307 H       1  ZINC000508571532    0.0600
     33 H33       -14.8691   -0.0895   51.0415 H       1  ZINC000508571532    0.0600
     34 H34       -15.9089   -0.8927   55.3161 H       1  ZINC000508571532    0.1400
     35 H35       -14.2443   -2.2238   56.5474 H       1  ZINC000508571532    0.1300
     36 H36       -13.1932   -3.4810   57.0778 H       1  ZINC000508571532    0.0800
     37 H37       -11.5030   -3.9571   57.3685 H       1  ZINC000508571532    0.1000
     38 H38       -10.6333    1.9983   59.8067 H       1  ZINC000508571532    0.0600
     39 H39        -9.1404    1.6340   60.7049 H       1  ZINC000508571532    0.0800
     40 H40        -9.3345    1.0605   59.0311 H       1  ZINC000508571532    0.0700
     41 H41       -11.8254    1.1716   61.5564 H       1  ZINC000508571532    0.0700
     42 H42       -11.9206   -0.5817   61.8487 H       1  ZINC000508571532    0.0900
     43 H43        -8.8836   -0.9821   62.1017 H       1  ZINC000508571532    0.1400
     44 H44        -7.3739   -0.7442   64.0313 H       1  ZINC000508571532    0.1300
     45 H45        -7.9596    0.7753   65.8766 H       1  ZINC000508571532    0.1400
     46 H46       -10.0575    2.0604   65.7965 H       1  ZINC000508571532    0.1400
     47 H47       -10.1047   -3.4407   59.8255 H       1  ZINC000508571532    0.0900
     48 H48        -9.5279   -3.1407   58.1684 H       1  ZINC000508571532    0.0900
     49 H49        -8.9886   -2.0925   59.5021 H       1  ZINC000508571532    0.1000
     50 H50       -11.4371   -1.6442   53.3785 H       1  ZINC000508571532    0.1400
     51 H51       -13.1030   -0.3164   52.1456 H       1  ZINC000508571532    0.1400
@<TRIPOS>BOND
     1     1     2    1
     2     1    31    1
     3     1    32    1
     4     1    33    1
     5     2     3    1
     6     3    30   ar
     7     3     4   ar
     8     4     5   ar
     9     4    34    1
    10     5     6   ar
    11     5    35    1
    12     6     7    1
    13     6    29   ar
    14     7     8    1
    15     8     9    1
    16     8    36    1
    17     8    37    1
    18     9    27    1
    19     9    10    2
    20    10    11    1
    21    11    12    2
    22    12    13    1
    23    12    27    1
    24    13    14    1
    25    13    15    1
    26    14    38    1
    27    14    39    1
    28    14    40    1
    29    15    16    1
    30    15    41    1
    31    15    42    1
    32    16    21   ar
    33    16    17   ar
    34    17    18   ar
    35    17    43    1
    36    18    19   ar
    37    18    44    1
    38    19    20   ar
    39    19    45    1
    40    20    21   ar
    41    20    46    1
    42    21    22    1
    43    22    23    1
    44    23    24    1
    45    23    25    1
    46    23    26    1
    47    27    28    1
    48    28    47    1
    49    28    48    1
    50    28    49    1
    51    29    30   ar
    52    29    50    1
    53    30    51    1
@<TRIPOS>SUBSTRUCTURE
     1 ZINC000508571532        1 TEMP              0 ****  ****    0 ROOT


##########                                Name:    ZINC000800038938
##########                DOCK_Rotatable_Bonds:                   6
##########                         Heavy_Atoms:                  25
##########                    Molecular_Weight:             386.274
##########                DOCK_Rotatable_Bonds:                   6
##########                       Formal_Charge:           0.0200003
##########                     HBond_Acceptors:                   7
##########                        HBond_Donors:                   0
##########                         Heavy_Atoms:                  25
##########                          Grid_Score:          -29.885103
##########                     Grid_vdw_energy:          -26.860525
##########                      Grid_es_energy:           -3.024578
##########           Internal_energy_repulsive:            8.260957

@<TRIPOS>MOLECULE
ZINC000800038938
 46 48 1 0 0
SMALL
USER_CHARGES


@<TRIPOS>ATOM
      1 C1         -6.8924    0.7837   66.4372 C.3     1  ZINC000800038938    0.0300
      2 O2         -8.0267    1.6304   66.6332 O.3     1  ZINC000800038938   -0.3800
      3 C3         -8.4689    2.2935   65.4470 C.3     1  ZINC000800038938    0.0900
      4 H4         -7.6184    2.7342   64.9269 H       1  ZINC000800038938    0.0700
      5 C5         -9.4947    3.3886   65.8050 C.3     1  ZINC000800038938   -0.1400
      6 C6        -10.5233    3.3384   64.6482 C.3     1  ZINC000800038938   -0.1400
      7 C7        -10.6341    1.8215   64.3549 C.3     1  ZINC000800038938    0.0900
      8 H8        -11.3015    1.3423   65.0711 H       1  ZINC000800038938    0.0900
      9 O9        -11.1019    1.5990   62.9985 O.3     1  ZINC000800038938   -0.3500
     10 C10       -12.3951    1.8587   62.7495 C.2     1  ZINC000800038938    0.4500
     11 O11       -13.1707    1.9969   63.6656 O.2     1  ZINC000800038938   -0.4800
     12 C12       -12.8796    1.9777   61.3275 C.3     1  ZINC000800038938    0.1500
     13 H13       -13.9669    1.9066   61.2994 H       1  ZINC000800038938    0.1200
     14 C14       -12.4262    3.3263   60.7297 C.3     1  ZINC000800038938   -0.1200
     15 C15       -12.0624    2.9536   59.2681 C.3     1  ZINC000800038938   -0.1300
     16 C16       -11.4669    1.5349   59.4478 C.3     1  ZINC000800038938    0.0900
     17 N17       -12.2873    0.9114   60.5067 N.am    1  ZINC000800038938   -0.6000
     18 C18       -12.4598   -0.4127   60.6894 C.2     1  ZINC000800038938    0.5800
     19 O19       -13.1602   -0.8147   61.5979 O.2     1  ZINC000800038938   -0.4900
     20 C20       -11.7972   -1.3758   59.7854 C.ar    1  ZINC000800038938   -0.1100
     21 C21       -10.4695   -1.7452   60.0060 C.ar    1  ZINC000800038938   -0.0700
     22 C22        -9.8566   -2.6454   59.1576 C.ar    1  ZINC000800038938   -0.0400
     23 Cl23       -8.2053   -3.1065   59.4306 Cl      1  ZINC000800038938   -0.0500
     24 C24       -10.5560   -3.1817   58.0893 C.ar    1  ZINC000800038938   -0.0700
     25 C25       -11.8717   -2.8198   57.8646 C.ar    1  ZINC000800038938   -0.1000
     26 C26       -12.4990   -1.9250   58.7091 C.ar    1  ZINC000800038938    0.0100
     27 Cl27      -14.1507   -1.4720   58.4252 Cl      1  ZINC000800038938   -0.0300
     28 C28        -9.1922    1.2969   64.5244 C.3     1  ZINC000800038938   -0.1200
     29 H29        -6.6191    0.3175   67.3839 H       1  ZINC000800038938    0.0900
     30 H30        -7.1374    0.0107   65.7089 H       1  ZINC000800038938    0.0400
     31 H31        -6.0553    1.3772   66.0694 H       1  ZINC000800038938    0.0400
     32 H32        -9.9781    3.1625   66.7555 H       1  ZINC000800038938    0.0800
     33 H33        -9.0121    4.3652   65.8443 H       1  ZINC000800038938    0.0800
     34 H34       -11.4844    3.7412   64.9680 H       1  ZINC000800038938    0.0800
     35 H35       -10.1498    3.8742   63.7756 H       1  ZINC000800038938    0.0800
     36 H36       -13.2400    4.0511   60.7518 H       1  ZINC000800038938    0.1000
     37 H37       -11.5534    3.7086   61.2589 H       1  ZINC000800038938    0.0900
     38 H38       -12.9519    2.9272   58.6387 H       1  ZINC000800038938    0.0900
     39 H39       -11.3194    3.6407   58.8631 H       1  ZINC000800038938    0.1000
     40 H40       -11.5514    0.9678   58.5209 H       1  ZINC000800038938    0.0900
     41 H41       -10.4248    1.5978   59.7614 H       1  ZINC000800038938    0.0800
     42 H42        -9.9226   -1.3275   60.8384 H       1  ZINC000800038938    0.1500
     43 H43       -10.0717   -3.8855   57.4287 H       1  ZINC000800038938    0.1500
     44 H44       -12.4113   -3.2416   57.0294 H       1  ZINC000800038938    0.1500
     45 H45        -8.6942    1.2540   63.5558 H       1  ZINC000800038938    0.0900
     46 H46        -9.2062    0.3075   64.9816 H       1  ZINC000800038938    0.0900
@<TRIPOS>BOND
     1     1     2    1
     2     1    29    1
     3     1    30    1
     4     1    31    1
     5     2     3    1
     6     3     4    1
     7     3    28    1
     8     3     5    1
     9     5     6    1
    10     5    32    1
    11     5    33    1
    12     6     7    1
    13     6    34    1
    14     6    35    1
    15     7     8    1
    16     7     9    1
    17     7    28    1
    18     9    10    1
    19    10    11    2
    20    10    12    1
    21    12    13    1
    22    12    17    1
    23    12    14    1
    24    14    15    1
    25    14    36    1
    26    14    37    1
    27    15    16    1
    28    15    38    1
    29    15    39    1
    30    16    17    1
    31    16    40    1
    32    16    41    1
    33    17    18   am
    34    18    19    2
    35    18    20    1
    36    20    26   ar
    37    20    21   ar
    38    21    22   ar
    39    21    42    1
    40    22    23    1
    41    22    24   ar
    42    24    25   ar
    43    24    43    1
    44    25    26   ar
    45    25    44    1
    46    26    27    1
    47    28    45    1
    48    28    46    1
@<TRIPOS>SUBSTRUCTURE
     1 ZINC000800038938        1 TEMP              0 ****  ****    0 ROOT


##########                                Name:    ZINC000550011575
##########                DOCK_Rotatable_Bonds:                   6
##########                         Heavy_Atoms:                  28
##########                    Molecular_Weight:             423.935
##########                DOCK_Rotatable_Bonds:                   6
##########                       Formal_Charge:          -0.0100002
##########                     HBond_Acceptors:                   7
##########                        HBond_Donors:                   0
##########                         Heavy_Atoms:                  28
##########                          Grid_Score:          -29.840221
##########                     Grid_vdw_energy:          -25.585552
##########                      Grid_es_energy:           -4.254669
##########           Internal_energy_repulsive:           32.963696

@<TRIPOS>MOLECULE
ZINC000550011575
 51 53 1 0 0
SMALL
USER_CHARGES


@<TRIPOS>ATOM
      1 C1        -13.2674    2.5841   60.1189 C.3     1  ZINC000550011575   -0.1400
      2 C2        -12.5358    1.6352   61.0704 C.3     1  ZINC000550011575   -0.6100
      3 H3        -11.4717    1.6331   60.8342 H       1  ZINC000550011575    0.1500
      4 C4        -12.7342    2.0968   62.4912 C.2     1  ZINC000550011575    0.5400
      5 O5        -13.8552    2.2416   62.9308 O.2     1  ZINC000550011575   -0.5100
      6 N6        -11.6658    2.3490   63.2731 N.am    1  ZINC000550011575   -0.6000
      7 C7        -11.8586    2.7961   64.6549 C.3     1  ZINC000550011575    0.0600
      8 C8        -10.3118    2.1759   62.7413 C.3     1  ZINC000550011575    0.1500
      9 C9         -9.3132    2.7498   63.7132 C.ar    1  ZINC000550011575   -0.1500
     10 C10        -8.8469    1.9783   64.7635 C.ar    1  ZINC000550011575    0.1400
     11 F11        -9.2868    0.7103   64.9180 F       1  ZINC000550011575   -0.1100
     12 C12        -7.9288    2.5067   65.6555 C.ar    1  ZINC000550011575   -0.1500
     13 C13        -7.4787    3.8035   65.4968 C.ar    1  ZINC000550011575   -0.0700
     14 C14        -7.9444    4.5742   64.4478 C.ar    1  ZINC000550011575   -0.1300
     15 C15        -8.8576    4.0461   63.5527 C.ar    1  ZINC000550011575    0.0000
     16 Cl16       -9.4412    5.0145   62.2353 Cl      1  ZINC000550011575   -0.0500
     17 S17       -13.2004   -0.0421   60.8811 S.o2    1  ZINC000550011575    2.4500
     18 O18       -12.5830   -0.8850   61.8442 O.2     1  ZINC000550011575   -0.9200
     19 O19       -14.6186    0.0355   60.8345 O.2     1  ZINC000550011575   -0.9100
     20 C20       -12.5924   -0.5026   59.2354 C.3     1  ZINC000550011575   -0.5300
     21 H21       -12.3258    0.3998   58.6852 H       1  ZINC000550011575    0.1500
     22 C22       -13.6936   -1.2451   58.4812 C.3     1  ZINC000550011575   -0.1100
     23 C23       -13.0968   -1.8129   57.1881 C.3     1  ZINC000550011575   -0.1100
     24 C24       -12.1392   -2.9448   57.5556 C.3     1  ZINC000550011575   -0.0900
     25 C25       -11.1594   -2.4894   58.6051 C.ar    1  ZINC000550011575   -0.0600
     26 C26       -10.0039   -3.2395   58.7797 C.ar    1  ZINC000550011575   -0.1200
     27 C27        -9.0699   -2.8777   59.7287 C.ar    1  ZINC000550011575   -0.1100
     28 C28        -9.2857   -1.7602   60.5131 C.ar    1  ZINC000550011575   -0.1100
     29 C29       -10.4321   -1.0123   60.3394 C.ar    1  ZINC000550011575   -0.1500
     30 C30       -11.3721   -1.3734   59.3823 C.ar    1  ZINC000550011575   -0.0800
     31 H31       -12.9925    2.3505   59.0903 H       1  ZINC000550011575    0.0900
     32 H32       -14.3437    2.4648   60.2433 H       1  ZINC000550011575    0.0900
     33 H33       -12.9873    3.6128   60.3452 H       1  ZINC000550011575    0.0800
     34 H34       -11.9071    1.9292   65.3139 H       1  ZINC000550011575    0.0700
     35 H35       -11.0238    3.4313   64.9509 H       1  ZINC000550011575    0.0800
     36 H36       -12.7882    3.3604   64.7277 H       1  ZINC000550011575    0.0700
     37 H37       -10.1106    1.1143   62.5981 H       1  ZINC000550011575    0.1000
     38 H38       -10.2278    2.6937   61.7858 H       1  ZINC000550011575    0.1100
     39 H39        -7.5648    1.9053   66.4754 H       1  ZINC000550011575    0.1500
     40 H40        -6.7630    4.2154   66.1929 H       1  ZINC000550011575    0.1500
     41 H41        -7.5922    5.5877   64.3248 H       1  ZINC000550011575    0.1400
     42 H42       -14.0757   -2.0591   59.0973 H       1  ZINC000550011575    0.0800
     43 H43       -14.5026   -0.5556   58.2402 H       1  ZINC000550011575    0.0900
     44 H44       -13.8949   -2.1987   56.5538 H       1  ZINC000550011575    0.0800
     45 H45       -12.5535   -1.0295   56.6596 H       1  ZINC000550011575    0.0700
     46 H46       -12.7114   -3.7890   57.9401 H       1  ZINC000550011575    0.0800
     47 H47       -11.5933   -3.2569   56.6653 H       1  ZINC000550011575    0.0800
     48 H48        -9.8350   -4.1132   58.1679 H       1  ZINC000550011575    0.1300
     49 H49        -8.1734   -3.4659   59.8585 H       1  ZINC000550011575    0.1300
     50 H50        -8.5597   -1.4737   61.2595 H       1  ZINC000550011575    0.1300
     51 H51       -10.6003   -0.1397   60.9531 H       1  ZINC000550011575    0.1700
@<TRIPOS>BOND
     1     1     2    1
     2     1    31    1
     3     1    32    1
     4     1    33    1
     5     2     3    1
     6     2     4    1
     7     2    17    1
     8     4     5    2
     9     4     6   am
    10     6     7    1
    11     6     8    1
    12     7    34    1
    13     7    35    1
    14     7    36    1
    15     8     9    1
    16     8    37    1
    17     8    38    1
    18     9    15   ar
    19     9    10   ar
    20    10    11    1
    21    10    12   ar
    22    12    13   ar
    23    12    39    1
    24    13    14   ar
    25    13    40    1
    26    14    15   ar
    27    14    41    1
    28    15    16    1
    29    17    18    2
    30    17    19    2
    31    17    20    1
    32    20    21    1
    33    20    30    1
    34    20    22    1
    35    22    23    1
    36    22    42    1
    37    22    43    1
    38    23    24    1
    39    23    44    1
    40    23    45    1
    41    24    25    1
    42    24    46    1
    43    24    47    1
    44    25    30   ar
    45    25    26   ar
    46    26    27   ar
    47    26    48    1
    48    27    28   ar
    49    27    49    1
    50    28    29   ar
    51    28    50    1
    52    29    30   ar
    53    29    51    1
@<TRIPOS>SUBSTRUCTURE
     1 ZINC000550011575        1 TEMP              0 ****  ****    0 ROOT


##########                                Name:    ZINC000894043060
##########                DOCK_Rotatable_Bonds:                  11
##########                         Heavy_Atoms:                  26
##########                    Molecular_Weight:             396.812
##########                DOCK_Rotatable_Bonds:                  11
##########                       Formal_Charge:          -0.0199999
##########                     HBond_Acceptors:                   9
##########                        HBond_Donors:                   2
##########                         Heavy_Atoms:                  26
##########                          Grid_Score:          -29.818584
##########                     Grid_vdw_energy:          -28.040937
##########                      Grid_es_energy:           -1.777647
##########           Internal_energy_repulsive:           10.891655

@<TRIPOS>MOLECULE
ZINC000894043060
 47 47 1 0 0
SMALL
USER_CHARGES


@<TRIPOS>ATOM
      1 C1        -14.6387   -2.1880   59.6475 C.3     1  ZINC000894043060   -0.1700
      2 C2        -13.1087   -2.1965   59.6439 C.3     1  ZINC000894043060    0.1000
      3 H3        -12.7462   -2.7246   60.5258 H       1  ZINC000894043060    0.1100
      4 N4        -12.6126   -0.8181   59.6620 N.am    1  ZINC000894043060   -0.7300
      5 C5        -12.5245   -0.1489   60.8285 C.2     1  ZINC000894043060    0.5200
      6 O6        -12.8574   -0.6872   61.8631 O.2     1  ZINC000894043060   -0.5200
      7 C7        -12.0125    1.2683   60.8473 C.3     1  ZINC000894043060   -0.1400
      8 C8        -10.4911    1.2631   60.6853 C.3     1  ZINC000894043060   -0.0200
      9 C9        -10.0009    2.6892   60.4265 C.3     1  ZINC000894043060   -0.1400
     10 C10        -9.8704    2.9138   58.9420 C.2     1  ZINC000894043060    0.5200
     11 O11        -8.8604    2.5729   58.3636 O.2     1  ZINC000894043060   -0.5200
     12 N12       -10.8761    3.4937   58.2573 N.am    1  ZINC000894043060   -0.7300
     13 C13       -10.7499    3.7106   56.8139 C.3     1  ZINC000894043060    0.1000
     14 H14       -10.2840    2.8387   56.3549 H       1  ZINC000894043060    0.1200
     15 C15       -12.1380    3.9258   56.2073 C.3     1  ZINC000894043060   -0.1700
     16 C16        -9.8842    4.9458   56.5576 C.3     1  ZINC000894043060    0.2600
     17 F17        -9.8112    5.1867   55.1814 F       1  ZINC000894043060   -0.1900
     18 F18       -10.4520    6.0538   57.1955 F       1  ZINC000894043060   -0.2000
     19 C19        -9.8537    0.7335   61.9440 C.ar    1  ZINC000894043060   -0.0600
     20 C20        -9.9722    1.4380   63.1275 C.ar    1  ZINC000894043060   -0.1200
     21 C21        -9.3878    0.9528   64.2823 C.ar    1  ZINC000894043060   -0.1200
     22 C22        -8.6841   -0.2382   64.2535 C.ar    1  ZINC000894043060   -0.0400
     23 Cl23       -7.9503   -0.8485   65.7036 Cl      1  ZINC000894043060   -0.0800
     24 C24        -8.5660   -0.9427   63.0686 C.ar    1  ZINC000894043060   -0.1100
     25 C25        -9.1556   -0.4594   61.9158 C.ar    1  ZINC000894043060   -0.0400
     26 C26       -12.6056   -2.9031   58.3835 C.3     1  ZINC000894043060    0.2600
     27 F27       -13.0041   -2.1810   57.2536 F       1  ZINC000894043060   -0.2000
     28 F28       -11.2093   -2.9812   58.4186 F       1  ZINC000894043060   -0.1900
     29 H29       -15.0012   -1.6597   58.7657 H       1  ZINC000894043060    0.0600
     30 H30       -15.0077   -3.2135   59.6341 H       1  ZINC000894043060    0.0800
     31 H31       -14.9971   -1.6846   60.5454 H       1  ZINC000894043060    0.0800
     32 H32       -12.3475   -0.3872   58.8343 H       1  ZINC000894043060    0.4000
     33 H33       -12.4632    1.8283   60.0280 H       1  ZINC000894043060    0.1000
     34 H34       -12.2753    1.7371   61.7956 H       1  ZINC000894043060    0.1000
     35 H35       -10.2175    0.6265   59.8439 H       1  ZINC000894043060    0.1000
     36 H36       -10.7163    3.4000   60.8399 H       1  ZINC000894043060    0.1000
     37 H37        -9.0307    2.8319   60.9022 H       1  ZINC000894043060    0.1000
     38 H38       -11.6834    3.7675   58.7201 H       1  ZINC000894043060    0.4000
     39 H39       -12.6039    4.7978   56.6664 H       1  ZINC000894043060    0.0700
     40 H40       -12.0441    4.0872   55.1334 H       1  ZINC000894043060    0.0800
     41 H41       -12.7547    3.0459   56.3899 H       1  ZINC000894043060    0.0700
     42 H42        -8.8818    4.7747   56.9500 H       1  ZINC000894043060    0.1200
     43 H43       -10.5211    2.3677   63.1498 H       1  ZINC000894043060    0.1200
     44 H44        -9.4800    1.5033   65.2068 H       1  ZINC000894043060    0.1300
     45 H45        -8.0166   -1.8722   63.0455 H       1  ZINC000894043060    0.1300
     46 H46        -9.0637   -1.0094   60.9909 H       1  ZINC000894043060    0.1300
     47 H47       -13.0247   -3.9083   58.3388 H       1  ZINC000894043060    0.1100
@<TRIPOS>BOND
     1     1     2    1
     2     1    29    1
     3     1    30    1
     4     1    31    1
     5     2     3    1
     6     2     4    1
     7     2    26    1
     8     4     5   am
     9     4    32    1
    10     5     6    2
    11     5     7    1
    12     7     8    1
    13     7    33    1
    14     7    34    1
    15     8     9    1
    16     8    19    1
    17     8    35    1
    18     9    10    1
    19     9    36    1
    20     9    37    1
    21    10    11    2
    22    10    12   am
    23    12    13    1
    24    12    38    1
    25    13    14    1
    26    13    15    1
    27    13    16    1
    28    15    39    1
    29    15    40    1
    30    15    41    1
    31    16    17    1
    32    16    18    1
    33    16    42    1
    34    19    25   ar
    35    19    20   ar
    36    20    21   ar
    37    20    43    1
    38    21    22   ar
    39    21    44    1
    40    22    23    1
    41    22    24   ar
    42    24    25   ar
    43    24    45    1
    44    25    46    1
    45    26    27    1
    46    26    28    1
    47    26    47    1
@<TRIPOS>SUBSTRUCTURE
     1 ZINC000894043060        1 TEMP              0 ****  ****    0 ROOT


##########                                Name:    ZINC000650955167
##########                DOCK_Rotatable_Bonds:                   9
##########                         Heavy_Atoms:                  26
##########                    Molecular_Weight:             361.484
##########                DOCK_Rotatable_Bonds:                   9
##########                       Formal_Charge:        -7.07805e-07
##########                     HBond_Acceptors:                   6
##########                        HBond_Donors:                   2
##########                         Heavy_Atoms:                  26
##########                          Grid_Score:          -29.789814
##########                     Grid_vdw_energy:          -28.708027
##########                      Grid_es_energy:           -1.081786
##########           Internal_energy_repulsive:           33.627953

@<TRIPOS>MOLECULE
ZINC000650955167
 57 59 1 0 0
SMALL
USER_CHARGES


@<TRIPOS>ATOM
      1 C1        -13.4050   -3.1262   57.7182 C.3     1  ZINC000650955167    0.0200
      2 O2        -12.6900   -2.5390   58.8074 O.3     1  ZINC000650955167   -0.3200
      3 C3        -11.3343   -2.6286   58.7753 C.ar    1  ZINC000650955167    0.1300
      4 C4        -10.7151   -3.4675   57.8604 C.ar    1  ZINC000650955167   -0.2000
      5 C5         -9.3365   -3.5564   57.8295 C.ar    1  ZINC000650955167   -0.0800
      6 C6         -8.5747   -2.8106   58.7095 C.ar    1  ZINC000650955167   -0.1500
      7 C7         -9.1896   -1.9741   59.6229 C.ar    1  ZINC000650955167   -0.0800
      8 C8        -10.5672   -1.8769   59.6537 C.ar    1  ZINC000650955167   -0.1100
      9 C9        -11.2368   -0.9646   60.6489 C.3     1  ZINC000650955167   -0.0800
     10 C10       -11.7204    0.3001   59.9364 C.3     1  ZINC000650955167    0.1800
     11 H11       -12.2078    0.0261   59.0007 H       1  ZINC000650955167    0.0900
     12 N12       -10.5756    1.1697   59.6545 N.am    1  ZINC000650955167   -0.7300
     13 C13       -10.6633    2.1079   58.6908 C.2     1  ZINC000650955167    0.7400
     14 O14       -11.6930    2.2335   58.0565 O.2     1  ZINC000650955167   -0.5800
     15 N15        -9.6096    2.9068   58.4303 N.am    1  ZINC000650955167   -0.6700
     16 C16        -8.2417    3.0583   58.9489 C.3     1  ZINC000650955167    0.1100
     17 C17        -8.3018    4.5319   58.5237 C.3     1  ZINC000650955167    0.0300
     18 N18        -7.0577    5.0383   57.9286 N.3     1  ZINC000650955167   -0.5100
     19 C19        -6.6742    4.2410   56.7440 C.3     1  ZINC000650955167    0.0400
     20 C20        -5.1252    4.2366   56.7548 C.3     1  ZINC000650955167   -0.1600
     21 C21        -4.8226    4.1504   58.2739 C.3     1  ZINC000650955167    0.0800
     22 H22        -4.8765    3.1181   58.6196 H       1  ZINC000650955167    0.0600
     23 O23        -3.5422    4.7134   58.5668 O.3     1  ZINC000650955167   -0.5600
     24 C24        -5.9508    4.9956   58.9016 C.3     1  ZINC000650955167    0.0500
     25 C25        -9.3195    4.0066   57.4979 C.3     1  ZINC000650955167    0.1400
     26 C26       -12.7154    1.0410   60.8319 C.3     1  ZINC000650955167   -0.1100
     27 C27       -14.0804    0.3540   60.7550 C.3     1  ZINC000650955167   -0.1400
     28 C28       -12.2144    1.0197   62.2774 C.3     1  ZINC000650955167   -0.1500
     29 H29       -14.4753   -2.9842   57.8676 H       1  ZINC000650955167    0.1000
     30 H30       -13.1020   -2.6498   56.7858 H       1  ZINC000650955167    0.0600
     31 H31       -13.1829   -4.1922   57.6705 H       1  ZINC000650955167    0.0600
     32 H32       -11.3098   -4.0508   57.1731 H       1  ZINC000650955167    0.1300
     33 H33        -8.8539   -4.2093   57.1174 H       1  ZINC000650955167    0.1200
     34 H34        -7.4973   -2.8818   58.6840 H       1  ZINC000650955167    0.1200
     35 H35        -8.5923   -1.3927   60.3096 H       1  ZINC000650955167    0.1300
     36 H36       -12.0881   -1.4775   61.0964 H       1  ZINC000650955167    0.0900
     37 H37       -10.5253   -0.6928   61.4286 H       1  ZINC000650955167    0.0800
     38 H38        -9.7546    1.0703   60.1614 H       1  ZINC000650955167    0.4000
     39 H39        -8.1688    2.9204   60.0276 H       1  ZINC000650955167    0.0700
     40 H40        -7.5020    2.4774   58.3981 H       1  ZINC000650955167    0.0900
     41 H41        -8.7209    5.1980   59.2778 H       1  ZINC000650955167    0.0900
     42 H42        -7.0572    3.2241   56.8309 H       1  ZINC000650955167    0.0500
     43 H43        -7.0461    4.7110   55.8336 H       1  ZINC000650955167    0.0900
     44 H44        -4.7335    3.3660   56.2286 H       1  ZINC000650955167    0.0800
     45 H45        -4.7292    5.1588   56.3295 H       1  ZINC000650955167    0.0900
     46 H46        -3.3045    4.6835   59.5036 H       1  ZINC000650955167    0.3800
     47 H47        -5.5917    6.0056   59.0992 H       1  ZINC000650955167    0.0900
     48 H48        -6.2895    4.5322   59.8284 H       1  ZINC000650955167    0.0700
     49 H49        -8.8643    3.6791   56.5633 H       1  ZINC000650955167    0.0900
     50 H50       -10.1653    4.6765   57.3433 H       1  ZINC000650955167    0.0800
     51 H51       -12.8087    2.0733   60.4949 H       1  ZINC000650955167    0.0700
     52 H52       -13.9871   -0.6784   61.0921 H       1  ZINC000650955167    0.0600
     53 H53       -14.7892    0.8818   61.3931 H       1  ZINC000650955167    0.0400
     54 H54       -14.4372    0.3691   59.7252 H       1  ZINC000650955167    0.0500
     55 H55       -11.2420    1.5091   62.3322 H       1  ZINC000650955167    0.0600
     56 H56       -12.9233    1.5475   62.9154 H       1  ZINC000650955167    0.0600
     57 H57       -12.1211   -0.0127   62.6144 H       1  ZINC000650955167    0.0600
@<TRIPOS>BOND
     1     1     2    1
     2     1    29    1
     3     1    30    1
     4     1    31    1
     5     2     3    1
     6     3     8   ar
     7     3     4   ar
     8     4     5   ar
     9     4    32    1
    10     5     6   ar
    11     5    33    1
    12     6     7   ar
    13     6    34    1
    14     7     8   ar
    15     7    35    1
    16     8     9    1
    17     9    10    1
    18     9    36    1
    19     9    37    1
    20    10    11    1
    21    10    12    1
    22    10    26    1
    23    12    13   am
    24    12    38    1
    25    13    14    2
    26    13    15   am
    27    15    25    1
    28    15    16    1
    29    16    17    1
    30    16    39    1
    31    16    40    1
    32    17    18    1
    33    17    25    1
    34    17    41    1
    35    18    24    1
    36    18    19    1
    37    19    20    1
    38    19    42    1
    39    19    43    1
    40    20    21    1
    41    20    44    1
    42    20    45    1
    43    21    22    1
    44    21    23    1
    45    21    24    1
    46    23    46    1
    47    24    47    1
    48    24    48    1
    49    25    49    1
    50    25    50    1
    51    26    27    1
    52    26    28    1
    53    26    51    1
    54    27    52    1
    55    27    53    1
    56    27    54    1
    57    28    55    1
    58    28    56    1
    59    28    57    1
@<TRIPOS>SUBSTRUCTURE
     1 ZINC000650955167        1 TEMP              0 ****  ****    0 ROOT


##########                                Name:    ZINC000474251633
##########                DOCK_Rotatable_Bonds:                   8
##########                         Heavy_Atoms:                  28
##########                    Molecular_Weight:             416.931
##########                DOCK_Rotatable_Bonds:                   8
##########                       Formal_Charge:          0.00999953
##########                     HBond_Acceptors:                   8
##########                        HBond_Donors:                   2
##########                         Heavy_Atoms:                  28
##########                          Grid_Score:          -29.771145
##########                     Grid_vdw_energy:          -26.996449
##########                      Grid_es_energy:           -2.774696
##########           Internal_energy_repulsive:           12.138547

@<TRIPOS>MOLECULE
ZINC000474251633
 49 52 1 0 0
SMALL
USER_CHARGES


@<TRIPOS>ATOM
      1 O1        -11.2847    2.8300   55.4574 O.2     1  ZINC000474251633   -0.5300
      2 C2        -10.9949    2.9246   56.6313 C.2     1  ZINC000474251633    0.5100
      3 C3        -11.8912    2.3176   57.6798 C.3     1  ZINC000474251633    0.1000
      4 N4        -11.0989    1.9843   58.8662 N.am    1  ZINC000474251633   -0.7100
      5 C5        -11.4378    0.9248   59.6271 C.2     1  ZINC000474251633    0.5900
      6 O6        -12.4009    0.2441   59.3279 O.2     1  ZINC000474251633   -0.5000
      7 C7        -10.6447    0.5919   60.8171 C.2     1  ZINC000474251633   -0.2300
      8 C8        -10.7339    1.2252   61.9926 C.2     1  ZINC000474251633    0.0400
      9 Cl9       -11.8280    2.5480   62.2514 Cl      1  ZINC000474251633   -0.0100
     10 C10        -9.8829    0.7472   63.0040 C.ar    1  ZINC000474251633   -0.0900
     11 C11        -9.7455    1.2021   64.3368 C.ar    1  ZINC000474251633   -0.0600
     12 C12        -8.8593    0.6091   65.1803 C.ar    1  ZINC000474251633   -0.1200
     13 C13        -8.0732   -0.4528   64.7509 C.ar    1  ZINC000474251633   -0.0800
     14 C14        -8.1834   -0.9170   63.4621 C.ar    1  ZINC000474251633   -0.0900
     15 C15        -9.0881   -0.3236   62.5758 C.ar    1  ZINC000474251633   -0.1200
     16 S16        -9.4550   -0.6956   60.8953 S.3     1  ZINC000474251633    0.1700
     17 N17        -9.8686    3.5675   56.9980 N.am    1  ZINC000474251633   -0.7200
     18 C18        -8.9973    4.1575   55.9787 C.3     1  ZINC000474251633    0.2100
     19 C19        -7.5650    4.0914   56.4427 C.2     1  ZINC000474251633    0.0500
     20 N20        -7.1450    4.2887   57.6659 N.2     1  ZINC000474251633   -0.2700
     21 N21        -5.7524    4.1367   57.6803 N.pl3   1  ZINC000474251633   -0.3600
     22 C22        -4.8826    4.2736   58.8513 C.3     1  ZINC000474251633    0.1500
     23 C23        -3.5127    4.8429   58.4281 C.3     1  ZINC000474251633   -0.1400
     24 C24        -3.6394    6.3656   58.6816 C.3     1  ZINC000474251633   -0.1300
     25 C25        -4.4672    6.4267   59.9893 C.3     1  ZINC000474251633   -0.1200
     26 C26        -5.4895    5.2806   59.8439 C.3     1  ZINC000474251633   -0.1400
     27 C27        -5.3538    3.8419   56.4253 C.2     1  ZINC000474251633    0.0600
     28 C28        -6.4558    3.8022   55.6411 C.2     1  ZINC000474251633   -0.2600
     29 H29       -12.6687    3.0319   57.9511 H       1  ZINC000474251633    0.1100
     30 H30       -12.3517    1.4122   57.2844 H       1  ZINC000474251633    0.1100
     31 H31       -10.3304    2.5263   59.1041 H       1  ZINC000474251633    0.4100
     32 H32       -10.3488    2.0267   64.6865 H       1  ZINC000474251633    0.1300
     33 H33        -8.7652    0.9675   66.1948 H       1  ZINC000474251633    0.1400
     34 H34        -7.3733   -0.9145   65.4316 H       1  ZINC000474251633    0.1400
     35 H35        -7.5696   -1.7423   63.1326 H       1  ZINC000474251633    0.1400
     36 H36        -9.6349    3.6396   57.9366 H       1  ZINC000474251633    0.4100
     37 H37        -9.1029    3.6040   55.0457 H       1  ZINC000474251633    0.0900
     38 H38        -9.2792    5.1981   55.8177 H       1  ZINC000474251633    0.0900
     39 H39        -4.7522    3.3053   59.3345 H       1  ZINC000474251633    0.1100
     40 H40        -2.7175    4.4189   59.0415 H       1  ZINC000474251633    0.0900
     41 H41        -3.3274    4.6460   57.3722 H       1  ZINC000474251633    0.0800
     42 H42        -2.6574    6.8164   58.8246 H       1  ZINC000474251633    0.0800
     43 H43        -4.1728    6.8502   57.8638 H       1  ZINC000474251633    0.0700
     44 H44        -3.8262    6.2586   60.8547 H       1  ZINC000474251633    0.0700
     45 H45        -4.9785    7.3857   60.0727 H       1  ZINC000474251633    0.0700
     46 H46        -6.4312    5.6674   59.4544 H       1  ZINC000474251633    0.0700
     47 H47        -5.6529    4.8013   60.8090 H       1  ZINC000474251633    0.0800
     48 H48        -4.3376    3.6649   56.1050 H       1  ZINC000474251633    0.1700
     49 H49        -6.4749    3.5909   54.5821 H       1  ZINC000474251633    0.1500
@<TRIPOS>BOND
     1     1     2    2
     2     2     3    1
     3     2    17   am
     4     3     4    1
     5     3    29    1
     6     3    30    1
     7     4     5   am
     8     4    31    1
     9     5     6    2
    10     5     7    1
    11     7    16    1
    12     7     8    2
    13     8     9    1
    14     8    10    1
    15    10    15   ar
    16    10    11   ar
    17    11    12   ar
    18    11    32    1
    19    12    13   ar
    20    12    33    1
    21    13    14   ar
    22    13    34    1
    23    14    15   ar
    24    14    35    1
    25    15    16    1
    26    17    18    1
    27    17    36    1
    28    18    19    1
    29    18    37    1
    30    18    38    1
    31    19    28    1
    32    19    20    2
    33    20    21    1
    34    21    22    1
    35    21    27    1
    36    22    26    1
    37    22    23    1
    38    22    39    1
    39    23    24    1
    40    23    40    1
    41    23    41    1
    42    24    25    1
    43    24    42    1
    44    24    43    1
    45    25    26    1
    46    25    44    1
    47    25    45    1
    48    26    46    1
    49    26    47    1
    50    27    28    2
    51    27    48    1
    52    28    49    1
@<TRIPOS>SUBSTRUCTURE
     1 ZINC000474251633        1 TEMP              0 ****  ****    0 ROOT


##########                                Name:    ZINC000409064708
##########                DOCK_Rotatable_Bonds:                   8
##########                         Heavy_Atoms:                  29
##########                    Molecular_Weight:             415.442
##########                DOCK_Rotatable_Bonds:                   8
##########                       Formal_Charge:                0.03
##########                     HBond_Acceptors:                   8
##########                        HBond_Donors:                   0
##########                         Heavy_Atoms:                  29
##########                          Grid_Score:          -29.767357
##########                     Grid_vdw_energy:          -30.345631
##########                      Grid_es_energy:            0.578274
##########           Internal_energy_repulsive:           22.412827

@<TRIPOS>MOLECULE
ZINC000409064708
 47 49 1 0 0
SMALL
USER_CHARGES


@<TRIPOS>ATOM
      1 C1         -7.8046    3.2500   66.0214 C.3     1  ZINC000409064708    0.0400
      2 O2         -9.1778    3.2590   65.5496 O.3     1  ZINC000409064708   -0.3500
      3 C3         -9.6802    4.4408   65.1588 C.2     1  ZINC000409064708    0.4600
      4 O4         -9.1753    5.4689   65.5434 O.2     1  ZINC000409064708   -0.4900
      5 C5        -10.8740    4.4853   64.2401 C.3     1  ZINC000409064708    0.1400
      6 H6        -11.7857    4.3515   64.8224 H       1  ZINC000409064708    0.1500
      7 C7        -10.9183    5.8378   63.5265 C.3     1  ZINC000409064708   -0.1600
      8 N8        -10.7667    3.4128   63.2477 N.am    1  ZINC000409064708   -0.5600
      9 C9         -9.6267    3.2326   62.5709 C.2     1  ZINC000409064708    0.5400
     10 O10        -8.6069    3.8860   62.6826 O.2     1  ZINC000409064708   -0.4200
     11 S11        -9.8864    1.8592   61.4814 S.3     1  ZINC000409064708   -0.0100
     12 C12       -11.5613    1.5824   61.9995 C.2     1  ZINC000409064708   -0.2400
     13 C13       -12.4256    0.6335   61.5587 C.2     1  ZINC000409064708    0.0900
     14 C14       -12.0029   -0.3222   60.5270 C.ar    1  ZINC000409064708   -0.1400
     15 C15       -12.8579   -0.6298   59.4614 C.ar    1  ZINC000409064708    0.0000
     16 C16       -12.4566   -1.5265   58.4970 C.ar    1  ZINC000409064708   -0.1600
     17 C17       -11.2053   -2.1265   58.5798 C.ar    1  ZINC000409064708    0.1600
     18 O18       -10.8145   -3.0100   57.6259 O.3     1  ZINC000409064708   -0.3000
     19 C19       -10.0330   -4.1262   58.0565 C.3     1  ZINC000409064708    0.1000
     20 C20        -8.6144   -3.9617   57.5756 C.ar    1  ZINC000409064708   -0.0700
     21 C21        -8.3420   -3.9430   56.2206 C.ar    1  ZINC000409064708   -0.1000
     22 C22        -7.0409   -3.7922   55.7778 C.ar    1  ZINC000409064708   -0.0900
     23 C23        -6.0112   -3.6597   56.6897 C.ar    1  ZINC000409064708   -0.1400
     24 C24        -6.2829   -3.6776   58.0475 C.ar    1  ZINC000409064708    0.1000
     25 F25        -5.2770   -3.5482   58.9401 F       1  ZINC000409064708   -0.1400
     26 C26        -7.5867   -3.8235   58.4895 C.ar    1  ZINC000409064708   -0.1300
     27 C27       -10.3525   -1.8249   59.6353 C.ar    1  ZINC000409064708   -0.2200
     28 C28       -10.7411   -0.9250   60.6019 C.ar    1  ZINC000409064708   -0.0400
     29 C29       -11.7943    2.6124   63.0183 C.2     1  ZINC000409064708    0.5600
     30 O30       -12.8555    2.7259   63.6031 O.2     1  ZINC000409064708   -0.4600
     31 H31        -7.1453    3.6003   65.2271 H       1  ZINC000409064708    0.0700
     32 H32        -7.7131    3.9075   66.8859 H       1  ZINC000409064708    0.0700
     33 H33        -7.5245    2.2356   66.3051 H       1  ZINC000409064708    0.1100
     34 H34       -10.9981    6.6357   64.2648 H       1  ZINC000409064708    0.1000
     35 H35       -10.0066    5.9716   62.9442 H       1  ZINC000409064708    0.0800
     36 H36       -11.7817    5.8700   62.8620 H       1  ZINC000409064708    0.0800
     37 H37       -13.4242    0.5811   61.9666 H       1  ZINC000409064708    0.1600
     38 H38       -13.8305   -0.1647   59.3966 H       1  ZINC000409064708    0.1300
     39 H39       -13.1150   -1.7644   57.6748 H       1  ZINC000409064708    0.1400
     40 H40       -10.0439   -4.1789   59.1451 H       1  ZINC000409064708    0.0800
     41 H41       -10.4523   -5.0440   57.6441 H       1  ZINC000409064708    0.0800
     42 H42        -9.1461   -4.0469   55.5071 H       1  ZINC000409064708    0.1300
     43 H43        -6.8291   -3.7782   54.7189 H       1  ZINC000409064708    0.1400
     44 H44        -4.9948   -3.5425   56.3438 H       1  ZINC000409064708    0.1400
     45 H45        -7.7999   -3.8374   59.5482 H       1  ZINC000409064708    0.1400
     46 H46        -9.3817   -2.2942   59.6949 H       1  ZINC000409064708    0.1300
     47 H47       -10.0778   -0.6913   61.4216 H       1  ZINC000409064708    0.1300
@<TRIPOS>BOND
     1     1     2    1
     2     1    31    1
     3     1    32    1
     4     1    33    1
     5     2     3    1
     6     3     4    2
     7     3     5    1
     8     5     6    1
     9     5     7    1
    10     5     8    1
    11     7    34    1
    12     7    35    1
    13     7    36    1
    14     8    29   am
    15     8     9   am
    16     9    10    2
    17     9    11    1
    18    11    12    1
    19    12    13    2
    20    12    29    1
    21    13    14    1
    22    13    37    1
    23    14    28   ar
    24    14    15   ar
    25    15    16   ar
    26    15    38    1
    27    16    17   ar
    28    16    39    1
    29    17    18    1
    30    17    27   ar
    31    18    19    1
    32    19    20    1
    33    19    40    1
    34    19    41    1
    35    20    26   ar
    36    20    21   ar
    37    21    22   ar
    38    21    42    1
    39    22    23   ar
    40    22    43    1
    41    23    24   ar
    42    23    44    1
    43    24    25    1
    44    24    26   ar
    45    26    45    1
    46    27    28   ar
    47    27    46    1
    48    28    47    1
    49    29    30    2
@<TRIPOS>SUBSTRUCTURE
     1 ZINC000409064708        1 TEMP              0 ****  ****    0 ROOT


##########                                Name:    ZINC001369071670
##########                DOCK_Rotatable_Bonds:                   8
##########                         Heavy_Atoms:                  24
##########                    Molecular_Weight:             335.366
##########                DOCK_Rotatable_Bonds:                   8
##########                       Formal_Charge:        -2.90573e-07
##########                     HBond_Acceptors:                  10
##########                        HBond_Donors:                   1
##########                         Heavy_Atoms:                  24
##########                          Grid_Score:          -29.764627
##########                     Grid_vdw_energy:          -25.064718
##########                      Grid_es_energy:           -4.699909
##########           Internal_energy_repulsive:           10.631002

@<TRIPOS>MOLECULE
ZINC001369071670
 45 47 1 0 0
SMALL
USER_CHARGES


@<TRIPOS>ATOM
      1 C1         -7.1742    5.6628   61.2282 C.3     1  ZINC001369071670   -0.0800
      2 C2         -8.2584    4.9924   62.0322 C.2     1  ZINC001369071670    0.0000
      3 C3         -9.5639    5.3436   62.0802 C.2     1  ZINC001369071670   -0.2300
      4 C4        -10.1392    4.4016   62.9725 C.2     1  ZINC001369071670    0.2100
      5 O5        -11.4395    4.3303   63.3542 O.3     1  ZINC001369071670   -0.2600
      6 C6        -11.7913    3.2891   64.2674 C.3     1  ZINC001369071670    0.0400
      7 C7        -12.1805    2.0544   63.4959 C.2     1  ZINC001369071670    0.5200
      8 O8        -12.8761    1.2081   64.0166 O.2     1  ZINC001369071670   -0.5100
      9 N9        -11.7559    1.8907   62.2273 N.am    1  ZINC001369071670   -0.7200
     10 C10       -12.1358    0.6913   61.4767 C.3     1  ZINC001369071670    0.1500
     11 H11       -12.1899   -0.1600   62.1553 H       1  ZINC001369071670    0.0900
     12 C12       -13.5016    0.9100   60.8229 C.3     1  ZINC001369071670   -0.1700
     13 C13       -11.0905    0.4148   60.3941 C.3     1  ZINC001369071670   -0.1200
     14 C14        -9.9584   -0.5229   60.8510 C.3     1  ZINC001369071670    0.0100
     15 N15       -10.0885   -1.1646   59.5241 N.3     1  ZINC001369071670   -0.4800
     16 C16       -10.0203   -2.6276   59.6380 C.3     1  ZINC001369071670    0.1000
     17 C17        -9.5904   -3.2146   58.3182 C.2     1  ZINC001369071670    0.1900
     18 N18       -10.3659   -3.5123   57.3045 N.2     1  ZINC001369071670   -0.3000
     19 N19        -9.6259   -3.9901   56.3642 N.2     1  ZINC001369071670   -0.0700
     20 N20        -8.3985   -4.0050   56.7520 N.2     1  ZINC001369071670   -0.0900
     21 N21        -8.3348   -3.5296   57.9497 N.pl3   1  ZINC001369071670   -0.3000
     22 C22        -7.1246   -3.3713   58.7599 C.3     1  ZINC001369071670    0.0800
     23 C23       -11.4912   -0.7059   59.4178 C.3     1  ZINC001369071670    0.0200
     24 N24        -9.1666    3.6168   63.3522 N.2     1  ZINC001369071670   -0.4100
     25 O25        -8.1187    3.9278   62.8352 O.3     1  ZINC001369071670    0.1000
     26 H26        -6.2280    5.1477   61.3936 H       1  ZINC001369071670    0.0900
     27 H27        -7.4295    5.6225   60.1693 H       1  ZINC001369071670    0.1000
     28 H28        -7.0811    6.7031   61.5402 H       1  ZINC001369071670    0.1000
     29 H29       -10.0545    6.1530   61.5602 H       1  ZINC001369071670    0.1800
     30 H30       -10.9383    3.0635   64.9076 H       1  ZINC001369071670    0.1000
     31 H31       -12.6312    3.6132   64.8820 H       1  ZINC001369071670    0.1000
     32 H32       -11.1987    2.5670   61.8113 H       1  ZINC001369071670    0.4000
     33 H33       -14.2462    1.1070   61.5942 H       1  ZINC001369071670    0.0600
     34 H34       -13.4475    1.7614   60.1444 H       1  ZINC001369071670    0.0600
     35 H35       -13.7842    0.0177   60.2644 H       1  ZINC001369071670    0.0700
     36 H36       -10.7395    1.3214   59.9012 H       1  ZINC001369071670    0.1100
     37 H37        -9.0044   -0.0180   61.0029 H       1  ZINC001369071670    0.1000
     38 H38       -10.2345   -1.1723   61.6818 H       1  ZINC001369071670    0.0800
     39 H39        -9.2987   -2.8988   60.4085 H       1  ZINC001369071670    0.1000
     40 H40       -11.0023   -3.0174   59.9063 H       1  ZINC001369071670    0.0900
     41 H41        -6.6919   -2.3873   58.5785 H       1  ZINC001369071670    0.1000
     42 H42        -7.3788   -3.4673   59.8155 H       1  ZINC001369071670    0.1000
     43 H43        -6.4024   -4.1413   58.4885 H       1  ZINC001369071670    0.1100
     44 H44       -12.2155   -1.4087   59.8295 H       1  ZINC001369071670    0.0800
     45 H45       -11.7619   -0.3472   58.4248 H       1  ZINC001369071670    0.1000
@<TRIPOS>BOND
     1     1     2    1
     2     1    26    1
     3     1    27    1
     4     1    28    1
     5     2    25    1
     6     2     3    2
     7     3     4    1
     8     3    29    1
     9     4     5    1
    10     4    24    2
    11     5     6    1
    12     6     7    1
    13     6    30    1
    14     6    31    1
    15     7     8    2
    16     7     9   am
    17     9    10    1
    18     9    32    1
    19    10    11    1
    20    10    12    1
    21    10    13    1
    22    12    33    1
    23    12    34    1
    24    12    35    1
    25    13    23    1
    26    13    14    1
    27    13    36    1
    28    14    15    1
    29    14    37    1
    30    14    38    1
    31    15    16    1
    32    15    23    1
    33    16    17    1
    34    16    39    1
    35    16    40    1
    36    17    21    1
    37    17    18    2
    38    18    19    1
    39    19    20    2
    40    20    21    1
    41    21    22    1
    42    22    41    1
    43    22    42    1
    44    22    43    1
    45    23    44    1
    46    23    45    1
    47    24    25    1
@<TRIPOS>SUBSTRUCTURE
     1 ZINC001369071670        1 TEMP              0 ****  ****    0 ROOT


##########                                Name:    ZINC000433961694
##########                DOCK_Rotatable_Bonds:                   7
##########                         Heavy_Atoms:                  29
##########                    Molecular_Weight:             413.472
##########                DOCK_Rotatable_Bonds:                   7
##########                       Formal_Charge:          0.00999992
##########                     HBond_Acceptors:                   8
##########                        HBond_Donors:                   0
##########                         Heavy_Atoms:                  29
##########                          Grid_Score:          -29.751793
##########                     Grid_vdw_energy:          -26.494408
##########                      Grid_es_energy:           -3.257386
##########           Internal_energy_repulsive:           12.867853

@<TRIPOS>MOLECULE
ZINC000433961694
 49 52 1 0 0
SMALL
USER_CHARGES


@<TRIPOS>ATOM
      1 C1         -9.4861    0.3631   62.5390 C.3     1  ZINC000433961694   -0.1000
      2 C2        -10.5079   -0.1512   61.5579 C.2     1  ZINC000433961694    0.1600
      3 C3        -11.7970    0.2710   61.5472 C.2     1  ZINC000433961694   -0.3000
      4 C4        -12.3906    1.2602   62.4532 C.2     1  ZINC000433961694    0.6200
      5 O5        -12.9740    0.8938   63.4562 O.2     1  ZINC000433961694   -0.5100
      6 N6        -12.2899    2.5750   62.1746 N.am    1  ZINC000433961694   -0.6100
      7 C7        -12.8371    3.6715   62.9943 C.3     1  ZINC000433961694    0.1100
      8 C8        -11.9698    4.9044   62.6375 C.3     1  ZINC000433961694   -0.1300
      9 C9        -11.7302    4.6881   61.1198 C.3     1  ZINC000433961694    0.0800
     10 H10       -12.5762    5.0566   60.5395 H       1  ZINC000433961694    0.1000
     11 O11       -10.5193    5.3225   60.7037 O.3     1  ZINC000433961694   -0.2900
     12 C12       -10.2317    5.2917   59.3775 C.ar    1  ZINC000433961694    0.1700
     13 C13       -11.1464    4.7806   58.4602 C.ar    1  ZINC000433961694   -0.2600
     14 C14       -10.8165    4.7667   57.1206 C.ar    1  ZINC000433961694    0.1400
     15 N15        -9.6524    5.2297   56.7061 N.ar    1  ZINC000433961694   -0.5100
     16 C16        -8.7598    5.7217   57.5444 C.ar    1  ZINC000433961694    0.1400
     17 C17        -9.0167    5.7757   58.8990 C.ar    1  ZINC000433961694   -0.2000
     18 C18       -11.6105    3.1538   61.0062 C.3     1  ZINC000433961694    0.0600
     19 S19       -12.6305   -0.5813   60.2495 S.3     1  ZINC000433961694    0.2100
     20 C20       -11.1879   -1.4091   59.8541 C.2     1  ZINC000433961694    0.0400
     21 C21       -11.0529   -2.4204   58.7450 C.3     1  ZINC000433961694    0.1400
     22 O22       -10.1506   -3.4524   59.1486 O.3     1  ZINC000433961694   -0.3000
     23 C23        -8.9791   -3.5498   58.4657 C.ar    1  ZINC000433961694    0.1200
     24 C24        -7.7721   -3.4069   59.1339 C.ar    1  ZINC000433961694   -0.1800
     25 C25        -6.5824   -3.5061   58.4387 C.ar    1  ZINC000433961694   -0.1100
     26 C26        -6.5945   -3.7475   57.0754 C.ar    1  ZINC000433961694    0.0600
     27 F27        -5.4304   -3.8438   56.3966 F       1  ZINC000433961694   -0.1400
     28 C28        -7.7987   -3.8908   56.4072 C.ar    1  ZINC000433961694   -0.1100
     29 C29        -8.9897   -3.7978   57.1010 C.ar    1  ZINC000433961694   -0.1200
     30 N30       -10.2268   -1.0403   60.6386 N.2     1  ZINC000433961694   -0.4500
     31 H31        -8.9917    1.2406   62.1221 H       1  ZINC000433961694    0.0800
     32 H32        -9.9816    0.6338   63.4713 H       1  ZINC000433961694    0.1000
     33 H33        -8.7458   -0.4131   62.7330 H       1  ZINC000433961694    0.0800
     34 H34       -13.8803    3.8539   62.7361 H       1  ZINC000433961694    0.0800
     35 H35       -12.7435    3.4357   64.0544 H       1  ZINC000433961694    0.1000
     36 H36       -12.5145    5.8309   62.8190 H       1  ZINC000433961694    0.1000
     37 H37       -11.0286    4.8923   63.1872 H       1  ZINC000433961694    0.1000
     38 H38       -12.1007    4.3998   58.7929 H       1  ZINC000433961694    0.1400
     39 H39       -11.5197    4.3718   56.4023 H       1  ZINC000433961694    0.1600
     40 H40        -7.8184    6.0907   57.1650 H       1  ZINC000433961694    0.1700
     41 H41        -8.2821    6.1799   59.5797 H       1  ZINC000433961694    0.1400
     42 H42       -10.5599    2.8633   61.0006 H       1  ZINC000433961694    0.0900
     43 H43       -12.0971    2.8107   60.0932 H       1  ZINC000433961694    0.0800
     44 H44       -12.0288   -2.8551   58.5289 H       1  ZINC000433961694    0.0900
     45 H45       -10.6676   -1.9300   57.8511 H       1  ZINC000433961694    0.1000
     46 H46        -7.7623   -3.2178   60.1972 H       1  ZINC000433961694    0.1400
     47 H47        -5.6424   -3.3948   58.9588 H       1  ZINC000433961694    0.1400
     48 H48        -7.8067   -4.0794   55.3438 H       1  ZINC000433961694    0.1500
     49 H49        -9.9289   -3.9096   56.5796 H       1  ZINC000433961694    0.1400
@<TRIPOS>BOND
     1     1     2    1
     2     1    31    1
     3     1    32    1
     4     1    33    1
     5     2    30    1
     6     2     3    2
     7     3     4    1
     8     3    19    1
     9     4     5    2
    10     4     6   am
    11     6    18    1
    12     6     7    1
    13     7     8    1
    14     7    34    1
    15     7    35    1
    16     8     9    1
    17     8    36    1
    18     8    37    1
    19     9    10    1
    20     9    11    1
    21     9    18    1
    22    11    12    1
    23    12    17   ar
    24    12    13   ar
    25    13    14   ar
    26    13    38    1
    27    14    15   ar
    28    14    39    1
    29    15    16   ar
    30    16    17   ar
    31    16    40    1
    32    17    41    1
    33    18    42    1
    34    18    43    1
    35    19    20    1
    36    20    21    1
    37    20    30    2
    38    21    22    1
    39    21    44    1
    40    21    45    1
    41    22    23    1
    42    23    29   ar
    43    23    24   ar
    44    24    25   ar
    45    24    46    1
    46    25    26   ar
    47    25    47    1
    48    26    27    1
    49    26    28   ar
    50    28    29   ar
    51    28    48    1
    52    29    49    1
@<TRIPOS>SUBSTRUCTURE
     1 ZINC000433961694        1 TEMP              0 ****  ****    0 ROOT


##########                                Name:    ZINC000637608314
##########                DOCK_Rotatable_Bonds:                   9
##########                         Heavy_Atoms:                  28
##########                    Molecular_Weight:             387.479
##########                DOCK_Rotatable_Bonds:                   9
##########                       Formal_Charge:           0.0499991
##########                     HBond_Acceptors:                   7
##########                        HBond_Donors:                   2
##########                         Heavy_Atoms:                  28
##########                          Grid_Score:          -29.731548
##########                     Grid_vdw_energy:          -30.295576
##########                      Grid_es_energy:            0.564028
##########           Internal_energy_repulsive:           41.538200

@<TRIPOS>MOLECULE
ZINC000637608314
 57 59 1 0 0
SMALL
USER_CHARGES


@<TRIPOS>ATOM
      1 C1         -8.6757    3.9665   63.7565 C.3     1  ZINC000637608314   -0.1400
      2 C2         -9.4284    2.7539   64.3081 C.3     1  ZINC000637608314   -0.0400
      3 C3         -8.6869    2.2054   65.5288 C.3     1  ZINC000637608314   -0.1500
      4 C4        -10.8420    3.1735   64.7160 C.3     1  ZINC000637608314   -0.1500
      5 C5         -9.5076    1.6867   63.2471 C.2     1  ZINC000637608314    0.1900
      6 C6        -10.1652    1.9391   62.0913 C.2     1  ZINC000637608314   -0.2400
      7 C7        -10.2427    0.9508   61.0999 C.2     1  ZINC000637608314    0.0200
      8 C8         -9.6503   -0.2586   61.3163 C.2     1  ZINC000637608314   -0.2400
      9 C9         -9.7182   -1.3382   60.2671 C.3     1  ZINC000637608314    0.2100
     10 N10       -11.1099   -1.7596   60.0892 N.am    1  ZINC000637608314   -0.7300
     11 C11       -11.4691   -2.4525   58.9904 C.2     1  ZINC000637608314    0.7100
     12 O12       -10.6383   -2.7264   58.1460 O.2     1  ZINC000637608314   -0.5900
     13 N13       -12.7492   -2.8415   58.8276 N.am    1  ZINC000637608314   -0.6200
     14 C14       -13.1392   -3.5961   57.6340 C.3     1  ZINC000637608314    0.2000
     15 C15       -13.5256   -2.6372   56.5375 C.2     1  ZINC000637608314   -0.0400
     16 C16       -12.7182   -2.1995   55.5546 C.2     1  ZINC000637608314   -0.1900
     17 C17       -13.4856   -1.3222   54.7544 C.2     1  ZINC000637608314   -0.2200
     18 C18       -14.7160   -1.2763   55.2960 C.2     1  ZINC000637608314   -0.0300
     19 O19       -14.7360   -2.0792   56.3724 O.3     1  ZINC000637608314   -0.1700
     20 C20       -13.7505   -2.5097   59.8441 C.3     1  ZINC000637608314    0.1300
     21 C21       -14.4257   -1.1855   59.4818 C.3     1  ZINC000637608314    0.0700
     22 H22       -14.8993   -1.2676   58.5035 H       1  ZINC000637608314    0.0900
     23 C23       -13.3785   -0.0514   59.4633 C.3     1  ZINC000637608314   -0.1500
     24 C24       -14.1618    1.1310   60.0960 C.3     1  ZINC000637608314   -0.1600
     25 C25       -15.0528    0.3804   61.1175 C.3     1  ZINC000637608314    0.0500
     26 O26       -15.4077   -0.8543   60.4707 O.3     1  ZINC000637608314   -0.3800
     27 C27        -8.9755   -0.4871   62.5277 C.2     1  ZINC000637608314    0.5300
     28 O28        -8.4406   -1.5647   62.7341 O.2     1  ZINC000637608314   -0.5400
     29 N29        -8.9138    0.4842   63.4583 N.am    1  ZINC000637608314   -0.6000
     30 H30        -7.6686    3.6677   63.4660 H       1  ZINC000637608314    0.0700
     31 H31        -9.2040    4.3572   62.8869 H       1  ZINC000637608314    0.0700
     32 H32        -8.6185    4.7384   64.5240 H       1  ZINC000637608314    0.0700
     33 H33        -8.6297    2.9773   66.2962 H       1  ZINC000637608314    0.0700
     34 H34        -9.2232    1.3416   65.9218 H       1  ZINC000637608314    0.0600
     35 H35        -7.6797    1.9065   65.2382 H       1  ZINC000637608314    0.0700
     36 H36       -11.3703    3.5642   63.8463 H       1  ZINC000637608314    0.0700
     37 H37       -11.3782    2.3096   65.1089 H       1  ZINC000637608314    0.0600
     38 H38       -10.7848    3.9454   65.4834 H       1  ZINC000637608314    0.0700
     39 H39       -10.6302    2.9010   61.9330 H       1  ZINC000637608314    0.1500
     40 H40       -10.7661    1.1449   60.1754 H       1  ZINC000637608314    0.1400
     41 H41        -9.3319   -0.9526   59.3236 H       1  ZINC000637608314    0.0800
     42 H42        -9.1180   -2.1911   60.5840 H       1  ZINC000637608314    0.0800
     43 H43       -11.7730   -1.5400   60.7624 H       1  ZINC000637608314    0.4000
     44 H44       -12.3015   -4.2094   57.3019 H       1  ZINC000637608314    0.1200
     45 H45       -13.9877   -4.2379   57.8710 H       1  ZINC000637608314    0.0900
     46 H46       -11.6824   -2.4666   55.4057 H       1  ZINC000637608314    0.1500
     47 H47       -13.1485   -0.7907   53.8768 H       1  ZINC000637608314    0.1500
     48 H48       -15.5478   -0.6955   54.9258 H       1  ZINC000637608314    0.2000
     49 H49       -14.5001   -3.2999   59.8872 H       1  ZINC000637608314    0.0800
     50 H50       -13.2649   -2.4162   60.8155 H       1  ZINC000637608314    0.1000
     51 H51       -12.5127   -0.3129   60.0716 H       1  ZINC000637608314    0.0800
     52 H52       -13.0794    0.1838   58.4418 H       1  ZINC000637608314    0.0900
     53 H53       -13.4876    1.8250   60.5980 H       1  ZINC000637608314    0.0800
     54 H54       -14.7674    1.6451   59.3496 H       1  ZINC000637608314    0.0800
     55 H55       -14.4946    0.1822   62.0325 H       1  ZINC000637608314    0.0600
     56 H56       -15.9480    0.9620   61.3379 H       1  ZINC000637608314    0.0800
     57 H57        -8.4462    0.3203   64.2922 H       1  ZINC000637608314    0.4100
@<TRIPOS>BOND
     1     1     2    1
     2     1    30    1
     3     1    31    1
     4     1    32    1
     5     2     3    1
     6     2     4    1
     7     2     5    1
     8     3    33    1
     9     3    34    1
    10     3    35    1
    11     4    36    1
    12     4    37    1
    13     4    38    1
    14     5    29    1
    15     5     6    2
    16     6     7    1
    17     6    39    1
    18     7     8    2
    19     7    40    1
    20     8     9    1
    21     8    27    1
    22     9    10    1
    23     9    41    1
    24     9    42    1
    25    10    11   am
    26    10    43    1
    27    11    12    2
    28    11    13   am
    29    13    14    1
    30    13    20    1
    31    14    15    1
    32    14    44    1
    33    14    45    1
    34    15    19    1
    35    15    16    2
    36    16    17    1
    37    16    46    1
    38    17    18    2
    39    17    47    1
    40    18    19    1
    41    18    48    1
    42    20    21    1
    43    20    49    1
    44    20    50    1
    45    21    22    1
    46    21    26    1
    47    21    23    1
    48    23    24    1
    49    23    51    1
    50    23    52    1
    51    24    25    1
    52    24    53    1
    53    24    54    1
    54    25    26    1
    55    25    55    1
    56    25    56    1
    57    27    28    2
    58    27    29   am
    59    29    57    1
@<TRIPOS>SUBSTRUCTURE
     1 ZINC000637608314        1 TEMP              0 ****  ****    0 ROOT


##########                                Name:    ZINC000537799672
##########                DOCK_Rotatable_Bonds:                   9
##########                         Heavy_Atoms:                  29
##########                    Molecular_Weight:             401.478
##########                DOCK_Rotatable_Bonds:                   9
##########                       Formal_Charge:        -4.47035e-07
##########                     HBond_Acceptors:                   6
##########                        HBond_Donors:                   1
##########                         Heavy_Atoms:                  29
##########                          Grid_Score:          -29.700451
##########                     Grid_vdw_energy:          -27.059874
##########                      Grid_es_energy:           -2.640578
##########           Internal_energy_repulsive:           25.981310

@<TRIPOS>MOLECULE
ZINC000537799672
 57 59 1 0 0
SMALL
USER_CHARGES


@<TRIPOS>ATOM
      1 C1        -13.1386   -0.6265   56.3217 C.3     1  ZINC000537799672    0.0300
      2 O2        -12.9612   -0.1601   57.6608 O.3     1  ZINC000537799672   -0.3800
      3 C3        -12.9755   -1.1969   58.6441 C.3     1  ZINC000537799672    0.1200
      4 H4        -13.6919   -1.9647   58.3521 H       1  ZINC000537799672    0.0900
      5 C5        -11.6015   -1.8065   58.7513 C.ar    1  ZINC000537799672   -0.1300
      6 C6        -11.3661   -3.0721   58.2473 C.ar    1  ZINC000537799672   -0.0600
      7 C7        -10.1065   -3.6322   58.3451 C.ar    1  ZINC000537799672   -0.1500
      8 C8         -9.0800   -2.9251   58.9480 C.ar    1  ZINC000537799672    0.1000
      9 F9         -7.8481   -3.4715   59.0438 F       1  ZINC000537799672   -0.1400
     10 C10        -9.3168   -1.6575   59.4521 C.ar    1  ZINC000537799672   -0.1500
     11 C11       -10.5760   -1.0975   59.3488 C.ar    1  ZINC000537799672   -0.0800
     12 C12       -13.3802   -0.6103   59.9980 C.3     1  ZINC000537799672    0.1600
     13 H13       -12.9016   -1.1765   60.7970 H       1  ZINC000537799672    0.1000
     14 C14       -14.8999   -0.6912   60.1551 C.3     1  ZINC000537799672   -0.1600
     15 N15       -12.9558    0.7901   60.0700 N.am    1  ZINC000537799672   -0.7100
     16 C16       -13.0797    1.4732   61.2251 C.2     1  ZINC000537799672    0.5600
     17 O17       -13.5422    0.9270   62.2076 O.2     1  ZINC000537799672   -0.5400
     18 C18       -12.6530    2.8869   61.2974 C.ar    1  ZINC000537799672   -0.1400
     19 C19       -13.2990    3.8542   60.5262 C.ar    1  ZINC000537799672   -0.0800
     20 C20       -12.8962    5.1719   60.5986 C.ar    1  ZINC000537799672   -0.1300
     21 C21       -11.8542    5.5350   61.4330 C.ar    1  ZINC000537799672   -0.0900
     22 C22       -11.2092    4.5808   62.2000 C.ar    1  ZINC000537799672   -0.1100
     23 C23       -11.6061    3.2609   62.1415 C.ar    1  ZINC000537799672   -0.0300
     24 C24       -10.9027    2.2232   62.9779 C.3     1  ZINC000537799672    0.1100
     25 O25       -10.3252    2.8481   64.1259 O.3     1  ZINC000537799672   -0.3800
     26 C26        -9.5891    1.9556   64.9649 C.3     1  ZINC000537799672    0.0900
     27 C27        -9.0657    0.7825   64.1305 C.3     1  ZINC000537799672   -0.1800
     28 C28        -8.2133   -0.1260   65.0202 C.3     1  ZINC000537799672    0.0600
     29 O29        -7.1445    0.6331   65.5890 O.3     1  ZINC000537799672   -0.3800
     30 C30        -7.5741    1.7150   66.4180 C.3     1  ZINC000537799672    0.0600
     31 C31        -8.4010    2.6976   65.5845 C.3     1  ZINC000537799672   -0.1500
     32 H32       -14.0623   -1.2014   56.2567 H       1  ZINC000537799672    0.0500
     33 H33       -13.1924    0.2257   55.6443 H       1  ZINC000537799672    0.0900
     34 H34       -12.2963   -1.2597   56.0429 H       1  ZINC000537799672    0.0400
     35 H35       -12.1670   -3.6234   57.7770 H       1  ZINC000537799672    0.1300
     36 H36        -9.9230   -4.6212   57.9518 H       1  ZINC000537799672    0.1400
     37 H37        -8.5168   -1.1052   59.9228 H       1  ZINC000537799672    0.1400
     38 H38       -10.7609   -0.1086   59.7416 H       1  ZINC000537799672    0.1300
     39 H39       -15.2261   -1.7208   60.0078 H       1  ZINC000537799672    0.0700
     40 H40       -15.1799   -0.3610   61.1555 H       1  ZINC000537799672    0.0600
     41 H41       -15.3765   -0.0496   59.4140 H       1  ZINC000537799672    0.0700
     42 H42       -12.5856    1.2256   59.2863 H       1  ZINC000537799672    0.4000
     43 H43       -14.1122    3.5719   59.8739 H       1  ZINC000537799672    0.1300
     44 H44       -13.3954    5.9215   60.0024 H       1  ZINC000537799672    0.1300
     45 H45       -11.5427    6.5677   61.4858 H       1  ZINC000537799672    0.1300
     46 H46       -10.3962    4.8707   62.8491 H       1  ZINC000537799672    0.1400
     47 H47       -11.6199    1.4673   63.2978 H       1  ZINC000537799672    0.0800
     48 H48       -10.1173    1.7518   62.3871 H       1  ZINC000537799672    0.0800
     49 H49       -10.2380    1.5809   65.7565 H       1  ZINC000537799672    0.0600
     50 H50        -9.9067    0.2159   63.7308 H       1  ZINC000537799672    0.0800
     51 H51        -8.4580    1.1623   63.3093 H       1  ZINC000537799672    0.0800
     52 H52        -8.8316   -0.5375   65.8179 H       1  ZINC000537799672    0.0500
     53 H53        -7.8030   -0.9395   64.4218 H       1  ZINC000537799672    0.1000
     54 H54        -8.1843    1.3276   67.2341 H       1  ZINC000537799672    0.0500
     55 H55        -6.7035    2.2279   66.8266 H       1  ZINC000537799672    0.1000
     56 H56        -7.7797    3.1160   64.7925 H       1  ZINC000537799672    0.0800
     57 H57        -8.7666    3.5006   66.2246 H       1  ZINC000537799672    0.0800
@<TRIPOS>BOND
     1     1     2    1
     2     1    32    1
     3     1    33    1
     4     1    34    1
     5     2     3    1
     6     3     4    1
     7     3     5    1
     8     3    12    1
     9     5    11   ar
    10     5     6   ar
    11     6     7   ar
    12     6    35    1
    13     7     8   ar
    14     7    36    1
    15     8     9    1
    16     8    10   ar
    17    10    11   ar
    18    10    37    1
    19    11    38    1
    20    12    13    1
    21    12    14    1
    22    12    15    1
    23    14    39    1
    24    14    40    1
    25    14    41    1
    26    15    16   am
    27    15    42    1
    28    16    17    2
    29    16    18    1
    30    18    23   ar
    31    18    19   ar
    32    19    20   ar
    33    19    43    1
    34    20    21   ar
    35    20    44    1
    36    21    22   ar
    37    21    45    1
    38    22    23   ar
    39    22    46    1
    40    23    24    1
    41    24    25    1
    42    24    47    1
    43    24    48    1
    44    25    26    1
    45    26    31    1
    46    26    27    1
    47    26    49    1
    48    27    28    1
    49    27    50    1
    50    27    51    1
    51    28    29    1
    52    28    52    1
    53    28    53    1
    54    29    30    1
    55    30    31    1
    56    30    54    1
    57    30    55    1
    58    31    56    1
    59    31    57    1
@<TRIPOS>SUBSTRUCTURE
     1 ZINC000537799672        1 TEMP              0 ****  ****    0 ROOT


##########                                Name:    ZINC000751548479
##########                DOCK_Rotatable_Bonds:                   9
##########                         Heavy_Atoms:                  27
##########                    Molecular_Weight:             389.407
##########                DOCK_Rotatable_Bonds:                   9
##########                       Formal_Charge:           0.0199995
##########                     HBond_Acceptors:                   9
##########                        HBond_Donors:                   2
##########                         Heavy_Atoms:                  27
##########                          Grid_Score:          -29.698055
##########                     Grid_vdw_energy:          -27.937189
##########                      Grid_es_energy:           -1.760865
##########           Internal_energy_repulsive:           15.124655

@<TRIPOS>MOLECULE
ZINC000751548479
 43 44 1 0 0
SMALL
USER_CHARGES


@<TRIPOS>ATOM
      1 C1         -9.5218    5.8828   66.8436 C.3     1  ZINC000751548479   -0.1600
      2 C2         -9.1787    5.1858   65.5254 C.3     1  ZINC000751548479    0.0800
      3 O3         -9.5522    3.7851   65.6071 O.3     1  ZINC000751548479   -0.3600
      4 C4         -9.3159    3.0251   64.5209 C.2     1  ZINC000751548479    0.6500
      5 O5         -8.6716    3.4741   63.5938 O.2     1  ZINC000751548479   -0.5400
      6 N6         -9.7941    1.7664   64.4623 N.am    1  ZINC000751548479   -0.6500
      7 C7         -9.5491    0.9782   63.3359 C.ar    1  ZINC000751548479    0.2000
      8 C8        -10.0178    1.3772   62.0926 C.ar    1  ZINC000751548479   -0.1000
      9 C9         -9.7766    0.5991   60.9781 C.ar    1  ZINC000751548479   -0.1000
     10 C10        -9.0629   -0.5891   61.0920 C.ar    1  ZINC000751548479    0.1300
     11 N11        -8.8238   -1.3712   59.9565 N.am    1  ZINC000751548479   -1.0500
     12 S12        -9.9484   -2.4830   59.4650 S.o2    1  ZINC000751548479    2.6800
     13 O13        -9.4896   -2.9948   58.2213 O.2     1  ZINC000751548479   -0.9500
     14 O14       -10.2186   -3.3054   60.5918 O.2     1  ZINC000751548479   -0.9400
     15 C15       -11.4364   -1.6034   59.1227 C.2     1  ZINC000751548479   -0.7500
     16 C16       -12.1738   -1.9324   58.0712 C.2     1  ZINC000751548479    0.0700
     17 C17       -13.4228   -1.1959   57.7851 C.ar    1  ZINC000751548479   -0.1100
     18 C18       -13.8254   -0.1503   58.6170 C.ar    1  ZINC000751548479   -0.0600
     19 C19       -14.9916    0.5342   58.3452 C.ar    1  ZINC000751548479   -0.1600
     20 C20       -15.7634    0.1849   57.2486 C.ar    1  ZINC000751548479    0.1200
     21 F21       -16.9050    0.8582   56.9870 F       1  ZINC000751548479   -0.1300
     22 C22       -15.3679   -0.8522   56.4190 C.ar    1  ZINC000751548479   -0.1600
     23 C23       -14.2007   -1.5397   56.6787 C.ar    1  ZINC000751548479   -0.0500
     24 C24        -8.5880   -1.0001   62.3262 C.ar    1  ZINC000751548479   -0.0600
     25 C25        -8.8236   -0.2162   63.4575 C.ar    1  ZINC000751548479   -0.0300
     26 C26        -8.3353   -0.6343   64.7371 C.1     1  ZINC000751548479    0.2500
     27 N27        -7.9478   -0.9660   65.7522 N.1     1  ZINC000751548479   -0.4000
     28 H28        -8.9755    5.4080   67.6585 H       1  ZINC000751548479    0.0700
     29 H29        -9.2414    6.9343   66.7822 H       1  ZINC000751548479    0.0900
     30 H30       -10.5929    5.8027   67.0289 H       1  ZINC000751548479    0.0700
     31 H31        -9.7249    5.6607   64.7104 H       1  ZINC000751548479    0.0800
     32 H32        -8.1076    5.2660   65.3401 H       1  ZINC000751548479    0.0800
     33 H33       -10.3084    1.4080   65.2025 H       1  ZINC000751548479    0.4200
     34 H34       -10.5731    2.2985   61.9965 H       1  ZINC000751548479    0.1600
     35 H35       -10.1442    0.9146   60.0128 H       1  ZINC000751548479    0.1700
     36 H36        -7.9993   -1.2621   59.4573 H       1  ZINC000751548479    0.4300
     37 H37       -11.7475   -0.7964   59.7693 H       1  ZINC000751548479    0.1700
     38 H38       -11.8619   -2.7386   57.4237 H       1  ZINC000751548479    0.1500
     39 H39       -13.2250    0.1222   59.4724 H       1  ZINC000751548479    0.1400
     40 H40       -15.3041    1.3435   58.9885 H       1  ZINC000751548479    0.1400
     41 H41       -15.9728   -1.1202   55.5654 H       1  ZINC000751548479    0.1400
     42 H42       -13.8933   -2.3476   56.0314 H       1  ZINC000751548479    0.1400
     43 H43        -8.0340   -1.9231   62.4130 H       1  ZINC000751548479    0.1500
@<TRIPOS>BOND
     1     1     2    1
     2     1    28    1
     3     1    29    1
     4     1    30    1
     5     2     3    1
     6     2    31    1
     7     2    32    1
     8     3     4    1
     9     4     5    2
    10     4     6   am
    11     6     7    1
    12     6    33    1
    13     7    25   ar
    14     7     8   ar
    15     8     9   ar
    16     8    34    1
    17     9    10   ar
    18     9    35    1
    19    10    11    1
    20    10    24   ar
    21    11    12   am
    22    11    36    1
    23    12    13    2
    24    12    14    2
    25    12    15    1
    26    15    16    2
    27    15    37    1
    28    16    17    1
    29    16    38    1
    30    17    23   ar
    31    17    18   ar
    32    18    19   ar
    33    18    39    1
    34    19    20   ar
    35    19    40    1
    36    20    21    1
    37    20    22   ar
    38    22    23   ar
    39    22    41    1
    40    23    42    1
    41    24    25   ar
    42    24    43    1
    43    25    26    1
    44    26    27    3
@<TRIPOS>SUBSTRUCTURE
     1 ZINC000751548479        1 TEMP              0 ****  ****    0 ROOT


##########                                Name:    ZINC000826324849
##########                DOCK_Rotatable_Bonds:                   4
##########                         Heavy_Atoms:                  27
##########                    Molecular_Weight:             395.374
##########                DOCK_Rotatable_Bonds:                   4
##########                       Formal_Charge:           0.0400001
##########                     HBond_Acceptors:                  13
##########                        HBond_Donors:                   1
##########                         Heavy_Atoms:                  27
##########                          Grid_Score:          -29.685276
##########                     Grid_vdw_energy:          -26.194609
##########                      Grid_es_energy:           -3.490667
##########           Internal_energy_repulsive:           85.558617

@<TRIPOS>MOLECULE
ZINC000826324849
 41 44 1 0 0
SMALL
USER_CHARGES


@<TRIPOS>ATOM
      1 C1         -7.4718   -3.2263   58.7668 C.3     1  ZINC000826324849   -0.0600
      2 C2         -8.8636   -2.8217   59.1796 C.2     1  ZINC000826324849    0.2000
      3 N3         -9.5797   -1.8512   58.6651 N.2     1  ZINC000826324849   -0.4600
      4 C4        -10.7422   -1.8612   59.3415 C.2     1  ZINC000826324849    0.1600
      5 C5        -11.9085   -0.9321   59.1242 C.3     1  ZINC000826324849    0.2200
      6 H6        -11.7881   -0.4071   58.1765 H       1  ZINC000826324849    0.1300
      7 C7        -13.2132   -1.7367   59.1064 C.3     1  ZINC000826324849    0.0600
      8 O8        -14.3223   -0.8348   59.0869 O.3     1  ZINC000826324849   -0.3600
      9 C9        -14.4151    0.0037   60.2411 C.3     1  ZINC000826324849    0.0400
     10 C10       -13.1720    0.8974   60.3169 C.3     1  ZINC000826324849    0.0800
     11 N11       -11.9780    0.0420   60.2249 N.am    1  ZINC000826324849   -1.0100
     12 S12       -10.7500    0.1707   61.3285 S.o2    1  ZINC000826324849    2.7100
     13 O13       -11.3475    0.0383   62.6109 O.2     1  ZINC000826324849   -0.9300
     14 O14        -9.7054   -0.6747   60.8667 O.2     1  ZINC000826324849   -0.9300
     15 C15       -10.1346    1.8190   61.2340 C.ar    1  ZINC000826324849   -0.5800
     16 C16       -10.2983    2.5525   60.0765 C.ar    1  ZINC000826324849   -0.0400
     17 C17        -9.8160    3.8469   59.9996 C.ar    1  ZINC000826324849   -0.0800
     18 C18        -9.1670    4.4141   61.0805 C.ar    1  ZINC000826324849   -0.1100
     19 C19        -8.9970    3.6889   62.2457 C.ar    1  ZINC000826324849    0.1300
     20 F20        -8.3631    4.2434   63.3021 F       1  ZINC000826324849   -0.1100
     21 C21        -9.4872    2.3856   62.3295 C.ar    1  ZINC000826324849    0.0500
     22 C22        -9.3088    1.6013   63.5772 C.2     1  ZINC000826324849    0.1800
     23 N23       -10.1043    1.6024   64.6283 N.2     1  ZINC000826324849   -0.2600
     24 N24        -9.6074    0.7932   65.4996 N.pl3   1  ZINC000826324849   -0.2200
     25 N25        -8.5228    0.2796   65.0340 N.2     1  ZINC000826324849   -0.0200
     26 N26        -8.3106    0.7498   63.8518 N.2     1  ZINC000826324849   -0.2600
     27 N27       -10.6749   -2.8195   60.2166 N.2     1  ZINC000826324849   -0.3800
     28 O28        -9.6061   -3.3874   60.1362 O.3     1  ZINC000826324849    0.0900
     29 H29        -7.1432   -4.0694   59.3744 H       1  ZINC000826324849    0.1000
     30 H30        -7.4741   -3.5150   57.7157 H       1  ZINC000826324849    0.1100
     31 H31        -6.7915   -2.3871   58.9117 H       1  ZINC000826324849    0.1100
     32 H32       -13.2404   -2.3666   58.2173 H       1  ZINC000826324849    0.1200
     33 H33       -13.2678   -2.3616   59.9978 H       1  ZINC000826324849    0.0600
     34 H34       -15.3071    0.6260   60.1682 H       1  ZINC000826324849    0.1200
     35 H35       -14.4740   -0.6149   61.1367 H       1  ZINC000826324849    0.0600
     36 H36       -13.1791    1.6071   59.4897 H       1  ZINC000826324849    0.0900
     37 H37       -13.1650    1.4369   61.2640 H       1  ZINC000826324849    0.1100
     38 H38       -10.8039    2.1148   59.2285 H       1  ZINC000826324849    0.1400
     39 H39        -9.9469    4.4166   59.0914 H       1  ZINC000826324849    0.1500
     40 H40        -8.7919    5.4247   61.0147 H       1  ZINC000826324849    0.1500
     41 H41        -9.9904    0.6016   66.3699 H       1  ZINC000826324849    0.4800
@<TRIPOS>BOND
     1     1     2    1
     2     1    29    1
     3     1    30    1
     4     1    31    1
     5     2    28    1
     6     2     3    2
     7     3     4    1
     8     4     5    1
     9     4    27    2
    10     5     6    1
    11     5    11    1
    12     5     7    1
    13     7     8    1
    14     7    32    1
    15     7    33    1
    16     8     9    1
    17     9    10    1
    18     9    34    1
    19     9    35    1
    20    10    11    1
    21    10    36    1
    22    10    37    1
    23    11    12   am
    24    12    13    2
    25    12    14    2
    26    12    15    1
    27    15    21   ar
    28    15    16   ar
    29    16    17   ar
    30    16    38    1
    31    17    18   ar
    32    17    39    1
    33    18    19   ar
    34    18    40    1
    35    19    20    1
    36    19    21   ar
    37    21    22    1
    38    22    26    1
    39    22    23    2
    40    23    24    1
    41    24    25    1
    42    24    41    1
    43    25    26    2
    44    27    28    1
@<TRIPOS>SUBSTRUCTURE
     1 ZINC000826324849        1 TEMP              0 ****  ****    0 ROOT


##########                                Name:    ZINC000942890482
##########                DOCK_Rotatable_Bonds:                   8
##########                         Heavy_Atoms:                  25
##########                    Molecular_Weight:             346.445
##########                DOCK_Rotatable_Bonds:                   8
##########                       Formal_Charge:          -0.0100004
##########                     HBond_Acceptors:                   5
##########                        HBond_Donors:                   0
##########                         Heavy_Atoms:                  25
##########                          Grid_Score:          -29.680637
##########                     Grid_vdw_energy:          -29.540997
##########                      Grid_es_energy:           -0.139641
##########           Internal_energy_repulsive:           23.912418

@<TRIPOS>MOLECULE
ZINC000942890482
 52 54 1 0 0
SMALL
USER_CHARGES


@<TRIPOS>ATOM
      1 C1        -14.2242   -0.0689   59.8903 C.3     1  ZINC000942890482   -0.1700
      2 C2        -13.0356   -0.2489   60.8367 C.3     1  ZINC000942890482    0.1000
      3 N3        -11.9190   -0.8561   60.1082 N.am    1  ZINC000942890482   -0.6000
      4 C4        -11.9061   -2.1844   59.8799 C.2     1  ZINC000942890482    0.5700
      5 O5        -12.8210   -2.8785   60.2786 O.2     1  ZINC000942890482   -0.5100
      6 C6        -10.7802   -2.7967   59.1454 C.ar    1  ZINC000942890482   -0.1400
      7 C7         -9.5613   -3.0185   59.7894 C.ar    1  ZINC000942890482   -0.0600
      8 C8         -8.5140   -3.5908   59.0994 C.ar    1  ZINC000942890482   -0.1600
      9 C9         -8.6694   -3.9458   57.7683 C.ar    1  ZINC000942890482    0.1300
     10 F10        -7.6398   -4.5062   57.0965 F       1  ZINC000942890482   -0.1300
     11 C11        -9.8779   -3.7281   57.1239 C.ar    1  ZINC000942890482   -0.1600
     12 C12       -10.9329   -3.1611   57.8057 C.ar    1  ZINC000942890482   -0.0100
     13 C13       -12.2456   -2.9252   57.1042 C.3     1  ZINC000942890482   -0.1200
     14 C14       -10.8164   -0.0196   59.6278 C.3     1  ZINC000942890482    0.1400
     15 H15       -10.1955   -0.5654   58.9173 H       1  ZINC000942890482    0.1100
     16 C16        -9.9679    0.5157   60.8114 C.3     1  ZINC000942890482   -0.1500
     17 C17        -9.3692    1.8205   60.2451 C.3     1  ZINC000942890482    0.1100
     18 N18       -10.2333    2.2523   59.1367 N.am    1  ZINC000942890482   -0.6200
     19 C19       -10.0384    3.3413   58.3670 C.2     1  ZINC000942890482    0.5300
     20 O20       -10.8198    3.6027   57.4770 O.2     1  ZINC000942890482   -0.5400
     21 C21        -8.8494    4.2342   58.6121 C.3     1  ZINC000942890482   -0.1300
     22 C22        -7.7010    3.8187   57.6904 C.3     1  ZINC000942890482   -0.0700
     23 C23        -8.0673    4.1438   56.2410 C.3     1  ZINC000942890482   -0.1600
     24 C24        -7.2852    5.2616   55.5484 C.3     1  ZINC000942890482   -0.1800
     25 C25        -7.0407    3.8022   55.1592 C.3     1  ZINC000942890482   -0.1800
     26 C26       -11.3478    1.2955   59.0050 C.3     1  ZINC000942890482    0.0900
     27 H27       -13.9350    0.5790   59.0628 H       1  ZINC000942890482    0.0600
     28 H28       -14.5295   -1.0404   59.5014 H       1  ZINC000942890482    0.0600
     29 H29       -15.0550    0.3828   60.4323 H       1  ZINC000942890482    0.0700
     30 H30       -12.7304    0.7225   61.2254 H       1  ZINC000942890482    0.0900
     31 H31       -13.3248   -0.8969   61.6641 H       1  ZINC000942890482    0.0900
     32 H32        -9.4392   -2.7421   60.8263 H       1  ZINC000942890482    0.1400
     33 H33        -7.5707   -3.7625   59.5964 H       1  ZINC000942890482    0.1400
     34 H34        -9.9936   -4.0065   56.0868 H       1  ZINC000942890482    0.1400
     35 H35       -12.8531   -3.8287   57.1566 H       1  ZINC000942890482    0.0900
     36 H36       -12.7737   -2.1037   57.5882 H       1  ZINC000942890482    0.0700
     37 H37       -12.0595   -2.6727   56.0603 H       1  ZINC000942890482    0.0700
     38 H38       -10.5992    0.7240   61.6752 H       1  ZINC000942890482    0.1000
     39 H39        -9.1787   -0.1901   61.0703 H       1  ZINC000942890482    0.0900
     40 H40        -9.3502    2.5866   61.0202 H       1  ZINC000942890482    0.0700
     41 H41        -8.3596    1.6364   59.8780 H       1  ZINC000942890482    0.0700
     42 H42        -9.1238    5.2690   58.4070 H       1  ZINC000942890482    0.0900
     43 H43        -8.5333    4.1413   59.6511 H       1  ZINC000942890482    0.0900
     44 H44        -6.7978    4.3624   57.9676 H       1  ZINC000942890482    0.0700
     45 H45        -7.5252    2.7476   57.7893 H       1  ZINC000942890482    0.0700
     46 H46        -9.1217    4.0347   55.9867 H       1  ZINC000942890482    0.1000
     47 H47        -7.8249    5.8881   54.8383 H       1  ZINC000942890482    0.0900
     48 H48        -6.5096    5.7653   56.1253 H       1  ZINC000942890482    0.0900
     49 H49        -6.1043    3.3459   55.4802 H       1  ZINC000942890482    0.0900
     50 H50        -7.4196    3.4687   54.1931 H       1  ZINC000942890482    0.0900
     51 H51       -11.5969    1.1456   57.9545 H       1  ZINC000942890482    0.0800
     52 H52       -12.2192    1.6501   59.5555 H       1  ZINC000942890482    0.0900
@<TRIPOS>BOND
     1     1     2    1
     2     1    27    1
     3     1    28    1
     4     1    29    1
     5     2     3    1
     6     2    30    1
     7     2    31    1
     8     3     4   am
     9     3    14    1
    10     4     5    2
    11     4     6    1
    12     6    12   ar
    13     6     7   ar
    14     7     8   ar
    15     7    32    1
    16     8     9   ar
    17     8    33    1
    18     9    10    1
    19     9    11   ar
    20    11    12   ar
    21    11    34    1
    22    12    13    1
    23    13    35    1
    24    13    36    1
    25    13    37    1
    26    14    15    1
    27    14    26    1
    28    14    16    1
    29    16    17    1
    30    16    38    1
    31    16    39    1
    32    17    18    1
    33    17    40    1
    34    17    41    1
    35    18    19   am
    36    18    26    1
    37    19    20    2
    38    19    21    1
    39    21    22    1
    40    21    42    1
    41    21    43    1
    42    22    23    1
    43    22    44    1
    44    22    45    1
    45    23    25    1
    46    23    24    1
    47    23    46    1
    48    24    25    1
    49    24    47    1
    50    24    48    1
    51    25    49    1
    52    25    50    1
    53    26    51    1
    54    26    52    1
@<TRIPOS>SUBSTRUCTURE
     1 ZINC000942890482        1 TEMP              0 ****  ****    0 ROOT


##########                                Name:    ZINC001109404798
##########                DOCK_Rotatable_Bonds:                   7
##########                         Heavy_Atoms:                  25
##########                    Molecular_Weight:              360.48
##########                DOCK_Rotatable_Bonds:                   7
##########                       Formal_Charge:           0.0100002
##########                     HBond_Acceptors:                   7
##########                        HBond_Donors:                   1
##########                         Heavy_Atoms:                  25
##########                          Grid_Score:          -29.631771
##########                     Grid_vdw_energy:          -28.548565
##########                      Grid_es_energy:           -1.083206
##########           Internal_energy_repulsive:           28.871004

@<TRIPOS>MOLECULE
ZINC001109404798
 49 52 1 0 0
SMALL
USER_CHARGES


@<TRIPOS>ATOM
      1 C1        -14.6972   -4.1098   57.7291 C.3     1  ZINC001109404798   -0.0600
      2 C2        -13.3301   -3.4834   57.8278 C.2     1  ZINC001109404798    0.1700
      3 N3        -12.4239   -3.4643   56.8966 N.2     1  ZINC001109404798   -0.3900
      4 O4        -11.4333   -2.8829   57.2865 O.3     1  ZINC001109404798    0.1000
      5 C5        -11.6191   -2.4631   58.5416 C.2     1  ZINC001109404798    0.1900
      6 C6        -10.6325   -1.7015   59.3887 C.3     1  ZINC001109404798    0.1600
      7 H7        -10.1353   -0.9476   58.7784 H       1  ZINC001109404798    0.1000
      8 C8         -9.5903   -2.6696   59.9525 C.3     1  ZINC001109404798   -0.1500
      9 N9        -11.3412   -1.0459   60.4959 N.3     1  ZINC001109404798   -0.4800
     10 C10       -12.2079    0.0784   59.9915 C.3     1  ZINC001109404798    0.0400
     11 H11       -13.0198   -0.2096   59.3237 H       1  ZINC001109404798    0.1100
     12 C12       -11.1361    1.0286   59.3773 C.3     1  ZINC001109404798   -0.1600
     13 C13        -9.9026    0.8209   60.2900 C.3     1  ZINC001109404798   -0.1600
     14 C14       -10.3940   -0.2271   61.3337 C.3     1  ZINC001109404798    0.0400
     15 H15        -9.6098   -0.7838   61.8467 H       1  ZINC001109404798    0.1200
     16 C16       -11.3794    0.5524   62.2559 C.3     1  ZINC001109404798    0.1500
     17 H17       -11.6417   -0.0451   63.1290 H       1  ZINC001109404798    0.1000
     18 N18       -10.7987    1.8335   62.6651 N.am    1  ZINC001109404798   -0.7200
     19 C19       -11.1715    2.4011   63.8293 C.2     1  ZINC001109404798    0.5100
     20 O20       -11.9866    1.8505   64.5389 O.2     1  ZINC001109404798   -0.5300
     21 C21       -10.5755    3.7200   64.2495 C.3     1  ZINC001109404798   -0.1300
     22 C22       -10.2902    3.6950   65.7525 C.3     1  ZINC001109404798   -0.0400
     23 C23        -8.9650    3.0220   66.0012 C.2     1  ZINC001109404798   -0.1000
     24 C24        -7.8929    3.6868   66.4345 C.2     1  ZINC001109404798   -0.2100
     25 S25        -6.5401    2.5761   66.6070 S.3     1  ZINC001109404798    0.1000
     26 C26        -7.5361    1.2316   66.0650 C.2     1  ZINC001109404798   -0.2100
     27 C27        -8.7698    1.6661   65.8029 C.2     1  ZINC001109404798   -0.1300
     28 C28       -12.6432    0.7436   61.3321 C.3     1  ZINC001109404798   -0.1100
     29 N29       -12.8260   -2.8363   58.8936 N.2     1  ZINC001109404798   -0.4800
     30 H30       -15.4066   -3.3755   57.3475 H       1  ZINC001109404798    0.0900
     31 H31       -14.6579   -4.9630   57.0520 H       1  ZINC001109404798    0.0900
     32 H32       -15.0158   -4.4438   58.7165 H       1  ZINC001109404798    0.0900
     33 H33        -9.0645   -3.1562   59.1310 H       1  ZINC001109404798    0.0700
     34 H34        -8.8767   -2.1188   60.5652 H       1  ZINC001109404798    0.0800
     35 H35       -10.0874   -3.4236   60.5629 H       1  ZINC001109404798    0.0800
     36 H36       -10.9080    0.7378   58.3519 H       1  ZINC001109404798    0.0700
     37 H37       -11.4732    2.0643   59.4177 H       1  ZINC001109404798    0.0800
     38 H38        -9.0632    0.4271   59.7169 H       1  ZINC001109404798    0.0700
     39 H39        -9.6284    1.7536   60.7826 H       1  ZINC001109404798    0.0800
     40 H40       -10.1460    2.2734   62.0983 H       1  ZINC001109404798    0.4000
     41 H41        -9.6459    3.8883   63.7059 H       1  ZINC001109404798    0.0900
     42 H42       -11.2775    4.5235   64.0263 H       1  ZINC001109404798    0.1000
     43 H43       -10.2563    4.7160   66.1328 H       1  ZINC001109404798    0.0800
     44 H44       -11.0794    3.1431   66.2629 H       1  ZINC001109404798    0.0800
     45 H45        -7.8602    4.7453   66.6465 H       1  ZINC001109404798    0.1600
     46 H46        -7.2014    0.2097   65.9644 H       1  ZINC001109404798    0.1600
     47 H47        -9.5546    1.0109   65.4547 H       1  ZINC001109404798    0.1400
     48 H48       -12.8428    1.8028   61.1694 H       1  ZINC001109404798    0.0800
     49 H49       -13.5133    0.2502   61.7651 H       1  ZINC001109404798    0.0900
@<TRIPOS>BOND
     1     1     2    1
     2     1    30    1
     3     1    31    1
     4     1    32    1
     5     2    29    1
     6     2     3    2
     7     3     4    1
     8     4     5    1
     9     5     6    1
    10     5    29    2
    11     6     7    1
    12     6     8    1
    13     6     9    1
    14     8    33    1
    15     8    34    1
    16     8    35    1
    17     9    14    1
    18     9    10    1
    19    10    11    1
    20    10    28    1
    21    10    12    1
    22    12    13    1
    23    12    36    1
    24    12    37    1
    25    13    14    1
    26    13    38    1
    27    13    39    1
    28    14    15    1
    29    14    16    1
    30    16    17    1
    31    16    18    1
    32    16    28    1
    33    18    19   am
    34    18    40    1
    35    19    20    2
    36    19    21    1
    37    21    22    1
    38    21    41    1
    39    21    42    1
    40    22    23    1
    41    22    43    1
    42    22    44    1
    43    23    27    1
    44    23    24    2
    45    24    25    1
    46    24    45    1
    47    25    26    1
    48    26    27    2
    49    26    46    1
    50    27    47    1
    51    28    48    1
    52    28    49    1
@<TRIPOS>SUBSTRUCTURE
     1 ZINC001109404798        1 TEMP              0 ****  ****    0 ROOT


##########                                Name:    ZINC000298969660
##########                DOCK_Rotatable_Bonds:                  10
##########                         Heavy_Atoms:                  29
##########                    Molecular_Weight:             397.474
##########                DOCK_Rotatable_Bonds:                  10
##########                       Formal_Charge:          -0.0100008
##########                     HBond_Acceptors:                   7
##########                        HBond_Donors:                   2
##########                         Heavy_Atoms:                  29
##########                          Grid_Score:          -29.609558
##########                     Grid_vdw_energy:          -28.677717
##########                      Grid_es_energy:           -0.931841
##########           Internal_energy_repulsive:           24.413134

@<TRIPOS>MOLECULE
ZINC000298969660
 56 58 1 0 0
SMALL
USER_CHARGES


@<TRIPOS>ATOM
      1 C1        -10.1454    3.1230   61.6552 C.3     1  ZINC000298969660    0.0800
      2 N2        -10.7519    1.8563   62.0722 N.am    1  ZINC000298969660   -0.6300
      3 C3        -10.2908    1.1902   63.2927 C.3     1  ZINC000298969660    0.1400
      4 C4        -10.9360    1.8540   64.5109 C.3     1  ZINC000298969660    0.0700
      5 H5        -10.7467    1.2488   65.3974 H       1  ZINC000298969660    0.0500
      6 C6        -12.4457    1.9739   64.2873 C.3     1  ZINC000298969660   -0.1500
      7 C7        -13.0758    2.6931   65.4839 C.3     1  ZINC000298969660   -0.1200
      8 C8        -12.4035    4.0586   65.6568 C.3     1  ZINC000298969660   -0.1600
      9 C9        -10.8953    3.8582   65.8275 C.3     1  ZINC000298969660    0.0600
     10 O10       -10.3779    3.1567   64.6952 O.3     1  ZINC000298969660   -0.3600
     11 C11       -11.7342    1.3040   61.3329 C.2     1  ZINC000298969660    0.7100
     12 O12       -12.1158    1.8562   60.3192 O.2     1  ZINC000298969660   -0.5400
     13 N13       -12.2934    0.1395   61.7174 N.am    1  ZINC000298969660   -0.6900
     14 C14       -13.3133   -0.4339   60.9498 C.ar    1  ZINC000298969660    0.2000
     15 C15       -14.5797    0.1361   60.9390 C.ar    1  ZINC000298969660   -0.1800
     16 C16       -15.5868   -0.4303   60.1815 C.ar    1  ZINC000298969660   -0.0600
     17 C17       -15.3371   -1.5645   59.4329 C.ar    1  ZINC000298969660   -0.2300
     18 C18       -14.0733   -2.1385   59.4398 C.ar    1  ZINC000298969660    0.1500
     19 O19       -13.8292   -3.2542   58.7033 O.3     1  ZINC000298969660   -0.2900
     20 C20       -13.5821   -3.0694   57.3080 C.3     1  ZINC000298969660    0.0400
     21 C21       -12.0979   -3.1130   57.0506 C.2     1  ZINC000298969660    0.5100
     22 O22       -11.6505   -2.6851   56.0077 O.2     1  ZINC000298969660   -0.4900
     23 N23       -11.2678   -3.6275   57.9794 N.am    1  ZINC000298969660   -0.6700
     24 C24        -9.8897   -3.6680   57.7404 C.ar    1  ZINC000298969660    0.1400
     25 C25        -9.4104   -4.0520   56.4949 C.ar    1  ZINC000298969660   -0.1400
     26 C26        -8.0496   -4.0909   56.2622 C.ar    1  ZINC000298969660   -0.1000
     27 C27        -7.1646   -3.7487   57.2680 C.ar    1  ZINC000298969660   -0.1300
     28 C28        -7.6386   -3.3664   58.5096 C.ar    1  ZINC000298969660   -0.1000
     29 C29        -8.9985   -3.3190   58.7466 C.ar    1  ZINC000298969660   -0.1200
     30 C30       -13.0591   -1.5699   60.1939 C.ar    1  ZINC000298969660   -0.1500
     31 H31        -9.2937    2.9215   61.0054 H       1  ZINC000298969660    0.0600
     32 H32       -10.8818    3.7180   61.1150 H       1  ZINC000298969660    0.0700
     33 H33        -9.8093    3.6719   62.5349 H       1  ZINC000298969660    0.0800
     34 H34       -10.5724    0.1376   63.2608 H       1  ZINC000298969660    0.1000
     35 H35        -9.2064    1.2741   63.3650 H       1  ZINC000298969660    0.0900
     36 H36       -12.6352    2.5448   63.3782 H       1  ZINC000298969660    0.0800
     37 H37       -12.8798    0.9787   64.1906 H       1  ZINC000298969660    0.0700
     38 H38       -14.1423    2.8317   65.3059 H       1  ZINC000298969660    0.0700
     39 H39       -12.9296    2.0980   66.3854 H       1  ZINC000298969660    0.0600
     40 H40       -12.5920    4.6716   64.7754 H       1  ZINC000298969660    0.0700
     41 H41       -12.8074    4.5543   66.5396 H       1  ZINC000298969660    0.0700
     42 H42       -10.4065    4.8290   65.9082 H       1  ZINC000298969660    0.0900
     43 H43       -10.7057    3.2793   66.7315 H       1  ZINC000298969660    0.0400
     44 H44       -11.9889   -0.3010   62.5262 H       1  ZINC000298969660    0.4100
     45 H45       -14.7774    1.0226   61.5234 H       1  ZINC000298969660    0.1300
     46 H46       -16.5712    0.0139   60.1748 H       1  ZINC000298969660    0.1300
     47 H47       -16.1263   -2.0051   58.8417 H       1  ZINC000298969660    0.1300
     48 H48       -14.0722   -3.8630   56.7440 H       1  ZINC000298969660    0.1000
     49 H49       -13.9771   -2.1032   56.9940 H       1  ZINC000298969660    0.1000
     50 H50       -11.6257   -3.9697   58.8134 H       1  ZINC000298969660    0.4100
     51 H51       -10.1012   -4.3201   55.7091 H       1  ZINC000298969660    0.1300
     52 H52        -7.6763   -4.3894   55.2937 H       1  ZINC000298969660    0.1300
     53 H53        -6.1009   -3.7804   57.0837 H       1  ZINC000298969660    0.1200
     54 H54        -6.9449   -3.1004   59.2933 H       1  ZINC000298969660    0.1300
     55 H55        -9.3680   -3.0204   59.7165 H       1  ZINC000298969660    0.1300
     56 H56       -12.0752   -2.0151   60.2006 H       1  ZINC000298969660    0.1500
@<TRIPOS>BOND
     1     1     2    1
     2     1    31    1
     3     1    32    1
     4     1    33    1
     5     2     3    1
     6     2    11   am
     7     3     4    1
     8     3    34    1
     9     3    35    1
    10     4     5    1
    11     4    10    1
    12     4     6    1
    13     6     7    1
    14     6    36    1
    15     6    37    1
    16     7     8    1
    17     7    38    1
    18     7    39    1
    19     8     9    1
    20     8    40    1
    21     8    41    1
    22     9    10    1
    23     9    42    1
    24     9    43    1
    25    11    12    2
    26    11    13   am
    27    13    14    1
    28    13    44    1
    29    14    30   ar
    30    14    15   ar
    31    15    16   ar
    32    15    45    1
    33    16    17   ar
    34    16    46    1
    35    17    18   ar
    36    17    47    1
    37    18    19    1
    38    18    30   ar
    39    19    20    1
    40    20    21    1
    41    20    48    1
    42    20    49    1
    43    21    22    2
    44    21    23   am
    45    23    24    1
    46    23    50    1
    47    24    29   ar
    48    24    25   ar
    49    25    26   ar
    50    25    51    1
    51    26    27   ar
    52    26    52    1
    53    27    28   ar
    54    27    53    1
    55    28    29   ar
    56    28    54    1
    57    29    55    1
    58    30    56    1
@<TRIPOS>SUBSTRUCTURE
     1 ZINC000298969660        1 TEMP              0 ****  ****    0 ROOT


##########                                Name:    ZINC001408567397
##########                DOCK_Rotatable_Bonds:                   9
##########                         Heavy_Atoms:                  24
##########                    Molecular_Weight:             336.434
##########                DOCK_Rotatable_Bonds:                   9
##########                       Formal_Charge:          -0.0199996
##########                     HBond_Acceptors:                   7
##########                        HBond_Donors:                   2
##########                         Heavy_Atoms:                  24
##########                          Grid_Score:          -29.604445
##########                     Grid_vdw_energy:          -26.960106
##########                      Grid_es_energy:           -2.644339
##########           Internal_energy_repulsive:           33.102886

@<TRIPOS>MOLECULE
ZINC001408567397
 52 53 1 0 0
SMALL
USER_CHARGES


@<TRIPOS>ATOM
      1 C1        -10.7691    1.5938   62.5809 C.3     1  ZINC001408567397   -0.0800
      2 C2        -10.1012    0.3767   61.9945 C.2     1  ZINC001408567397    0.0900
      3 N3         -9.0295   -0.2103   62.4620 N.2     1  ZINC001408567397   -0.2900
      4 N4         -8.7322   -1.3014   61.6352 N.pl3   1  ZINC001408567397   -0.4700
      5 C5         -9.6615   -1.3473   60.6578 C.2     1  ZINC001408567397    0.1100
      6 C6         -9.7307   -2.3604   59.5444 C.3     1  ZINC001408567397   -0.1000
      7 C7        -10.5234   -0.3238   60.8598 C.2     1  ZINC001408567397   -0.2200
      8 C8        -11.7212    0.0079   60.0078 C.3     1  ZINC001408567397   -0.0600
      9 C9        -12.9185   -0.7617   60.5030 C.2     1  ZINC001408567397    0.5100
     10 O10       -13.2744   -0.6528   61.6572 O.2     1  ZINC001408567397   -0.5300
     11 N11       -13.5939   -1.5711   59.6631 N.am    1  ZINC001408567397   -0.7300
     12 C12       -14.7589   -2.3179   60.1441 C.3     1  ZINC001408567397    0.1100
     13 C13       -15.6484   -2.6947   58.9577 C.3     1  ZINC001408567397    0.1000
     14 N14       -14.8510   -2.6901   57.7287 N.am    1  ZINC001408567397   -0.6200
     15 C15       -14.0638   -3.8700   57.3618 C.3     1  ZINC001408567397    0.0700
     16 C16       -14.8417   -1.6005   56.9355 C.2     1  ZINC001408567397    0.5100
     17 O17       -15.4922   -0.6233   57.2400 O.2     1  ZINC001408567397   -0.5300
     18 C18       -14.0229   -1.5964   55.6704 C.3     1  ZINC001408567397   -0.1300
     19 C19       -14.1553   -0.2367   54.9816 C.3     1  ZINC001408567397   -0.1100
     20 H20       -15.2019   -0.0511   54.7401 H       1  ZINC001408567397    0.0900
     21 C21       -13.6429    0.8630   55.9167 C.3     1  ZINC001408567397   -0.1200
     22 C22       -13.7078    2.2087   55.1881 C.3     1  ZINC001408567397   -0.1600
     23 C23       -12.8935    2.1199   53.8948 C.3     1  ZINC001408567397    0.0600
     24 O24       -13.4024    1.0582   53.0850 O.3     1  ZINC001408567397   -0.3800
     25 C25       -13.3249   -0.2317   53.6955 C.3     1  ZINC001408567397    0.0600
     26 H26       -11.5140    1.2820   63.3131 H       1  ZINC001408567397    0.0800
     27 H27       -10.0212    2.2198   63.0675 H       1  ZINC001408567397    0.0700
     28 H28       -11.2554    2.1597   61.7863 H       1  ZINC001408567397    0.0800
     29 H29        -7.9894   -1.9154   61.7457 H       1  ZINC001408567397    0.4400
     30 H30       -10.3346   -3.2100   59.8632 H       1  ZINC001408567397    0.0800
     31 H31       -10.1830   -1.9030   58.6644 H       1  ZINC001408567397    0.0900
     32 H32        -8.7245   -2.7011   59.3002 H       1  ZINC001408567397    0.0700
     33 H33       -11.9258    1.0767   60.0688 H       1  ZINC001408567397    0.1000
     34 H34       -11.5172   -0.2644   58.9723 H       1  ZINC001408567397    0.1000
     35 H35       -13.3085   -1.6592   58.7403 H       1  ZINC001408567397    0.4000
     36 H36       -14.4260   -3.2238   60.6508 H       1  ZINC001408567397    0.0700
     37 H37       -15.3249   -1.6992   60.8406 H       1  ZINC001408567397    0.0700
     38 H38       -16.0644   -3.6895   59.1171 H       1  ZINC001408567397    0.0800
     39 H39       -16.4592   -1.9719   58.8674 H       1  ZINC001408567397    0.0900
     40 H40       -14.6711   -4.5357   56.7487 H       1  ZINC001408567397    0.0600
     41 H41       -13.1840   -3.5589   56.7985 H       1  ZINC001408567397    0.0800
     42 H42       -13.7504   -4.3929   58.2654 H       1  ZINC001408567397    0.0800
     43 H43       -12.9765   -1.7799   55.9142 H       1  ZINC001408567397    0.1000
     44 H44       -14.3829   -2.3787   55.0022 H       1  ZINC001408567397    0.1000
     45 H45       -14.2662    0.9016   56.8101 H       1  ZINC001408567397    0.0700
     46 H46       -12.6118    0.6505   56.1989 H       1  ZINC001408567397    0.0600
     47 H47       -14.7450    2.4444   54.9499 H       1  ZINC001408567397    0.0700
     48 H48       -13.2934    2.9890   55.8266 H       1  ZINC001408567397    0.0700
     49 H49       -12.9712    3.0612   53.3509 H       1  ZINC001408567397    0.0900
     50 H50       -11.8486    1.9243   54.1359 H       1  ZINC001408567397    0.0500
     51 H51       -12.2859   -0.4590   53.9343 H       1  ZINC001408567397    0.0400
     52 H52       -13.7127   -0.9832   53.0077 H       1  ZINC001408567397    0.1100
@<TRIPOS>BOND
     1     1     2    1
     2     1    26    1
     3     1    27    1
     4     1    28    1
     5     2     7    1
     6     2     3    2
     7     3     4    1
     8     4     5    1
     9     4    29    1
    10     5     6    1
    11     5     7    2
    12     6    30    1
    13     6    31    1
    14     6    32    1
    15     7     8    1
    16     8     9    1
    17     8    33    1
    18     8    34    1
    19     9    10    2
    20     9    11   am
    21    11    12    1
    22    11    35    1
    23    12    13    1
    24    12    36    1
    25    12    37    1
    26    13    14    1
    27    13    38    1
    28    13    39    1
    29    14    15    1
    30    14    16   am
    31    15    40    1
    32    15    41    1
    33    15    42    1
    34    16    17    2
    35    16    18    1
    36    18    19    1
    37    18    43    1
    38    18    44    1
    39    19    20    1
    40    19    25    1
    41    19    21    1
    42    21    22    1
    43    21    45    1
    44    21    46    1
    45    22    23    1
    46    22    47    1
    47    22    48    1
    48    23    24    1
    49    23    49    1
    50    23    50    1
    51    24    25    1
    52    25    51    1
    53    25    52    1
@<TRIPOS>SUBSTRUCTURE
     1 ZINC001408567397        1 TEMP              0 ****  ****    0 ROOT


##########                                Name:    ZINC000671418508
##########                DOCK_Rotatable_Bonds:                   9
##########                         Heavy_Atoms:                  28
##########                    Molecular_Weight:             405.884
##########                DOCK_Rotatable_Bonds:                   9
##########                       Formal_Charge:         -1.3411e-07
##########                     HBond_Acceptors:                   9
##########                        HBond_Donors:                   2
##########                         Heavy_Atoms:                  28
##########                          Grid_Score:          -29.597712
##########                     Grid_vdw_energy:          -29.360527
##########                      Grid_es_energy:           -0.237185
##########           Internal_energy_repulsive:           23.648895

@<TRIPOS>MOLECULE
ZINC000671418508
 52 54 1 0 0
SMALL
USER_CHARGES


@<TRIPOS>ATOM
      1 C1        -12.8527    2.3088   51.0240 C.3     1  ZINC000671418508    0.1000
      2 N2        -13.3600    1.6047   52.2044 N.pl3   1  ZINC000671418508   -0.3700
      3 C3        -13.0856    0.3284   52.5463 C.2     1  ZINC000671418508    0.0800
      4 C4        -13.7443    0.0590   53.6972 C.2     1  ZINC000671418508   -0.2700
      5 C5        -13.7252   -1.2497   54.4443 C.3     1  ZINC000671418508    0.2000
      6 N6        -14.1317   -1.0247   55.8337 N.am    1  ZINC000671418508   -0.6900
      7 C7        -13.8656   -1.9544   56.7725 C.2     1  ZINC000671418508    0.5100
      8 O8        -13.2906   -2.9783   56.4667 O.2     1  ZINC000671418508   -0.5100
      9 C9        -14.2787   -1.7242   58.1902 C.2     1  ZINC000671418508    0.5100
     10 O10       -15.4507   -1.7867   58.4986 O.2     1  ZINC000671418508   -0.5200
     11 N11       -13.3494   -1.4470   59.1264 N.am    1  ZINC000671418508   -0.5800
     12 C12       -11.9243   -1.3605   58.7730 C.3     1  ZINC000671418508    0.0800
     13 C13       -11.3678   -0.0395   59.3147 C.3     1  ZINC000671418508    0.0400
     14 N14       -11.6586    0.0582   60.7513 N.3     1  ZINC000671418508   -0.5200
     15 C15       -10.9943    1.2264   61.3445 C.3     1  ZINC000671418508    0.1300
     16 H16       -11.7455    1.9078   61.7437 H       1  ZINC000671418508    0.0600
     17 C17       -10.1724    1.9448   60.2723 C.3     1  ZINC000671418508    0.0900
     18 O18        -9.6604    3.1680   60.8048 O.3     1  ZINC000671418508   -0.5500
     19 C19       -10.0835    0.7751   62.4571 C.ar    1  ZINC000671418508   -0.0800
     20 C20        -9.2017   -0.2688   62.2477 C.ar    1  ZINC000671418508   -0.0600
     21 C21        -8.3662   -0.6831   63.2678 C.ar    1  ZINC000671418508   -0.1200
     22 C22        -8.4123   -0.0529   64.4986 C.ar    1  ZINC000671418508   -0.0300
     23 Cl23       -7.3629   -0.5724   65.7801 Cl      1  ZINC000671418508   -0.0700
     24 C24        -9.2950    0.9918   64.7075 C.ar    1  ZINC000671418508   -0.1200
     25 C25       -10.1261    1.4089   63.6849 C.ar    1  ZINC000671418508   -0.1100
     26 C26       -13.1059    0.0925   61.0009 C.3     1  ZINC000671418508    0.0400
     27 C27       -13.7341   -1.2171   60.5271 C.3     1  ZINC000671418508    0.1100
     28 C28       -14.4453    1.2101   54.0714 C.2     1  ZINC000671418508    0.0700
     29 N29       -14.2108    2.1391   53.1804 N.2     1  ZINC000671418508   -0.2900
     30 H30       -11.9108    2.7991   51.2704 H       1  ZINC000671418508    0.0800
     31 H31       -12.6904    1.5946   50.2168 H       1  ZINC000671418508    0.0900
     32 H32       -13.5795    3.0567   50.7069 H       1  ZINC000671418508    0.0900
     33 H33       -12.4537   -0.3556   51.9992 H       1  ZINC000671418508    0.1800
     34 H34       -14.4164   -1.9477   53.9719 H       1  ZINC000671418508    0.0800
     35 H35       -12.7179   -1.6654   54.4232 H       1  ZINC000671418508    0.0800
     36 H36       -14.5925   -0.2069   56.0780 H       1  ZINC000671418508    0.4100
     37 H37       -11.3849   -2.1957   59.2198 H       1  ZINC000671418508    0.0800
     38 H38       -11.8136   -1.3874   57.6889 H       1  ZINC000671418508    0.1400
     39 H39       -10.2895   -0.0080   59.1588 H       1  ZINC000671418508    0.0900
     40 H40       -11.8359    0.7942   58.7912 H       1  ZINC000671418508    0.0400
     41 H41        -9.3436    1.3082   59.9626 H       1  ZINC000671418508    0.0500
     42 H42       -10.8063    2.1602   59.4122 H       1  ZINC000671418508    0.0500
     43 H43        -8.7516    3.1057   61.1295 H       1  ZINC000671418508    0.3800
     44 H44        -9.1660   -0.7610   61.2871 H       1  ZINC000671418508    0.1400
     45 H45        -7.6776   -1.4989   63.1042 H       1  ZINC000671418508    0.1300
     46 H46        -9.3318    1.4839   65.6682 H       1  ZINC000671418508    0.1300
     47 H47       -10.8149    2.2247   63.8478 H       1  ZINC000671418508    0.1300
     48 H48       -13.2879    0.2198   62.0680 H       1  ZINC000671418508    0.0900
     49 H49       -13.5496    0.9243   60.4540 H       1  ZINC000671418508    0.0400
     50 H50       -14.8195   -1.1515   60.6044 H       1  ZINC000671418508    0.1000
     51 H51       -13.3698   -2.0411   61.1407 H       1  ZINC000671418508    0.0800
     52 H52       -15.0684    1.3154   54.9472 H       1  ZINC000671418508    0.1900
@<TRIPOS>BOND
     1     1     2    1
     2     1    30    1
     3     1    31    1
     4     1    32    1
     5     2    29    1
     6     2     3    1
     7     3     4    2
     8     3    33    1
     9     4     5    1
    10     4    28    1
    11     5     6    1
    12     5    34    1
    13     5    35    1
    14     6     7   am
    15     6    36    1
    16     7     8    2
    17     7     9    1
    18     9    10    2
    19     9    11   am
    20    11    27    1
    21    11    12    1
    22    12    13    1
    23    12    37    1
    24    12    38    1
    25    13    14    1
    26    13    39    1
    27    13    40    1
    28    14    15    1
    29    14    26    1
    30    15    16    1
    31    15    17    1
    32    15    19    1
    33    17    18    1
    34    17    41    1
    35    17    42    1
    36    18    43    1
    37    19    25   ar
    38    19    20   ar
    39    20    21   ar
    40    20    44    1
    41    21    22   ar
    42    21    45    1
    43    22    23    1
    44    22    24   ar
    45    24    25   ar
    46    24    46    1
    47    25    47    1
    48    26    27    1
    49    26    48    1
    50    26    49    1
    51    27    50    1
    52    27    51    1
    53    28    29    2
    54    28    52    1
@<TRIPOS>SUBSTRUCTURE
     1 ZINC000671418508        1 TEMP              0 ****  ****    0 ROOT


##########                                Name:    ZINC001310073555
##########                DOCK_Rotatable_Bonds:                  12
##########                         Heavy_Atoms:                  27
##########                    Molecular_Weight:             380.484
##########                DOCK_Rotatable_Bonds:                  12
##########                       Formal_Charge:          0.00999888
##########                     HBond_Acceptors:                   7
##########                        HBond_Donors:                   2
##########                         Heavy_Atoms:                  27
##########                          Grid_Score:          -29.591852
##########                     Grid_vdw_energy:          -29.353075
##########                      Grid_es_energy:           -0.238777
##########           Internal_energy_repulsive:           65.958847

@<TRIPOS>MOLECULE
ZINC001310073555
 59 59 1 0 0
SMALL
USER_CHARGES


@<TRIPOS>ATOM
      1 C1        -12.4380    1.5905   63.6245 C.3     1  ZINC001310073555   -0.1600
      2 C2        -11.8937    2.8651   62.9764 C.3     1  ZINC001310073555   -0.1100
      3 C3        -11.0090    2.4936   61.7847 C.3     1  ZINC001310073555   -0.0600
      4 C4         -9.9540    1.4787   62.2296 C.3     1  ZINC001310073555   -0.1100
      5 C5         -9.1008    2.0858   63.3450 C.3     1  ZINC001310073555   -0.1600
      6 C6        -11.8722    1.8810   60.6801 C.3     1  ZINC001310073555    0.1600
      7 N7        -11.8455    0.4206   60.7928 N.am    1  ZINC001310073555   -0.7400
      8 C8        -11.0072   -0.2995   60.0212 C.2     1  ZINC001310073555    0.7100
      9 O9        -10.2722    0.2630   59.2326 O.2     1  ZINC001310073555   -0.5700
     10 N10       -10.9837   -1.6432   60.1238 N.am    1  ZINC001310073555   -0.6700
     11 C11       -10.1107   -2.3933   59.3202 C.ar    1  ZINC001310073555    0.1000
     12 C12        -8.7441   -2.3457   59.5485 C.ar    1  ZINC001310073555   -0.0400
     13 C13        -7.8843   -3.0843   58.7573 C.ar    1  ZINC001310073555   -0.2200
     14 C14        -8.3862   -3.8746   57.7343 C.ar    1  ZINC001310073555    0.1500
     15 O15        -7.5379   -4.6000   56.9578 O.3     1  ZINC001310073555   -0.3200
     16 C16        -6.9683   -3.9387   55.8263 C.3     1  ZINC001310073555    0.0300
     17 C17        -9.7530   -3.9262   57.5027 C.ar    1  ZINC001310073555   -0.2300
     18 C18       -10.6171   -3.1908   58.2964 C.ar    1  ZINC001310073555    0.1400
     19 O19       -11.9572   -3.2400   58.0710 O.3     1  ZINC001310073555   -0.3100
     20 C20       -12.4159   -2.8053   56.7894 C.3     1  ZINC001310073555    0.0300
     21 C21       -10.3263    3.7308   61.2610 C.2     1  ZINC001310073555    0.4800
     22 O22       -10.7220    4.8241   61.5898 O.2     1  ZINC001310073555   -0.5000
     23 O23        -9.2787    3.6184   60.4293 O.3     1  ZINC001310073555   -0.3400
     24 C24        -8.7679    4.8445   59.8430 C.3     1  ZINC001310073555    0.1200
     25 C25        -9.8951    5.5612   59.0970 C.3     1  ZINC001310073555   -0.1800
     26 C26        -8.2300    5.7536   60.9498 C.3     1  ZINC001310073555   -0.1400
     27 C27        -7.6403    4.5105   58.8643 C.3     1  ZINC001310073555   -0.1800
     28 H28       -13.0684    1.8552   64.4735 H       1  ZINC001310073555    0.0600
     29 H29       -13.0265    1.0345   62.8945 H       1  ZINC001310073555    0.0500
     30 H30       -11.6072    0.9737   63.9671 H       1  ZINC001310073555    0.0600
     31 H31       -12.7246    3.4819   62.6339 H       1  ZINC001310073555    0.0800
     32 H32       -11.3053    3.4211   63.7064 H       1  ZINC001310073555    0.0800
     33 H33       -10.4476    0.5794   62.5981 H       1  ZINC001310073555    0.0800
     34 H34        -9.3168    1.2225   61.3832 H       1  ZINC001310073555    0.0800
     35 H35        -8.6072    2.9850   62.9764 H       1  ZINC001310073555    0.0600
     36 H36        -9.7380    2.3421   64.1915 H       1  ZINC001310073555    0.0500
     37 H37        -8.3492    1.3628   63.6620 H       1  ZINC001310073555    0.0600
     38 H38       -12.8981    2.2346   60.7825 H       1  ZINC001310073555    0.0800
     39 H39       -11.4812    2.1776   59.7068 H       1  ZINC001310073555    0.0800
     40 H40       -12.4309   -0.0281   61.4227 H       1  ZINC001310073555    0.4000
     41 H41       -11.5701   -2.0920   60.7527 H       1  ZINC001310073555    0.4100
     42 H42        -8.3510   -1.7308   60.3447 H       1  ZINC001310073555    0.1500
     43 H43        -6.8199   -3.0455   58.9359 H       1  ZINC001310073555    0.1300
     44 H44        -7.7648   -3.6078   55.1598 H       1  ZINC001310073555    0.0600
     45 H45        -6.3930   -3.0757   56.1614 H       1  ZINC001310073555    0.0600
     46 H46        -6.3126   -4.6282   55.2946 H       1  ZINC001310073555    0.1000
     47 H47       -10.1430   -4.5419   56.7058 H       1  ZINC001310073555    0.1400
     48 H48       -13.5010   -2.8958   56.7419 H       1  ZINC001310073555    0.1000
     49 H49       -12.1310   -1.7646   56.6352 H       1  ZINC001310073555    0.0600
     50 H50       -11.9654   -3.4240   56.0132 H       1  ZINC001310073555    0.0600
     51 H51       -10.6985    5.7991   59.7942 H       1  ZINC001310073555    0.0600
     52 H52        -9.5116    6.4818   58.6568 H       1  ZINC001310073555    0.0700
     53 H53       -10.2783    4.9135   58.3084 H       1  ZINC001310073555    0.0800
     54 H54        -7.4270    5.2430   61.4812 H       1  ZINC001310073555    0.0700
     55 H55        -7.8466    6.6741   60.5096 H       1  ZINC001310073555    0.0800
     56 H56        -9.0334    5.9915   61.6470 H       1  ZINC001310073555    0.0700
     57 H57        -8.0235    3.8629   58.0757 H       1  ZINC001310073555    0.0800
     58 H58        -7.2567    5.4310   58.4242 H       1  ZINC001310073555    0.0700
     59 H59        -6.8372    3.9999   59.3958 H       1  ZINC001310073555    0.0600
@<TRIPOS>BOND
     1     1     2    1
     2     1    28    1
     3     1    29    1
     4     1    30    1
     5     2     3    1
     6     2    31    1
     7     2    32    1
     8     3     4    1
     9     3     6    1
    10     3    21    1
    11     4     5    1
    12     4    33    1
    13     4    34    1
    14     5    35    1
    15     5    36    1
    16     5    37    1
    17     6     7    1
    18     6    38    1
    19     6    39    1
    20     7     8   am
    21     7    40    1
    22     8     9    2
    23     8    10   am
    24    10    11    1
    25    10    41    1
    26    11    18   ar
    27    11    12   ar
    28    12    13   ar
    29    12    42    1
    30    13    14   ar
    31    13    43    1
    32    14    15    1
    33    14    17   ar
    34    15    16    1
    35    16    44    1
    36    16    45    1
    37    16    46    1
    38    17    18   ar
    39    17    47    1
    40    18    19    1
    41    19    20    1
    42    20    48    1
    43    20    49    1
    44    20    50    1
    45    21    22    2
    46    21    23    1
    47    23    24    1
    48    24    25    1
    49    24    26    1
    50    24    27    1
    51    25    51    1
    52    25    52    1
    53    25    53    1
    54    26    54    1
    55    26    55    1
    56    26    56    1
    57    27    57    1
    58    27    58    1
    59    27    59    1
@<TRIPOS>SUBSTRUCTURE
     1 ZINC001310073555        1 TEMP              0 ****  ****    0 ROOT


##########                                Name:    ZINC000301324012
##########                DOCK_Rotatable_Bonds:                   7
##########                         Heavy_Atoms:                  28
##########                    Molecular_Weight:               415.9
##########                DOCK_Rotatable_Bonds:                   7
##########                       Formal_Charge:          -0.0100002
##########                     HBond_Acceptors:                   8
##########                        HBond_Donors:                   2
##########                         Heavy_Atoms:                  28
##########                          Grid_Score:          -29.591413
##########                     Grid_vdw_energy:          -28.573408
##########                      Grid_es_energy:           -1.018006
##########           Internal_energy_repulsive:           12.545995

@<TRIPOS>MOLECULE
ZINC000301324012
 46 48 1 0 0
SMALL
USER_CHARGES


@<TRIPOS>ATOM
      1 C1         -7.1527    4.2520   55.0881 C.3     1  ZINC000301324012   -0.1600
      2 C2         -7.0766    4.5591   56.5851 C.3     1  ZINC000301324012    0.2000
      3 H3         -7.3927    5.5873   56.7616 H       1  ZINC000301324012    0.1100
      4 N4         -7.9574    3.6451   57.3165 N.am    1  ZINC000301324012   -0.7100
      5 C5         -9.2848    3.8748   57.3548 C.2     1  ZINC000301324012    0.5500
      6 O6         -9.7515    4.8396   56.7812 O.2     1  ZINC000301324012   -0.5300
      7 C7        -10.1734    2.9534   58.0945 C.ar    1  ZINC000301324012   -0.0700
      8 C8         -9.7585    2.4026   59.3080 C.ar    1  ZINC000301324012   -0.1100
      9 C9        -10.5926    1.5439   59.9934 C.ar    1  ZINC000301324012   -0.0200
     10 C10       -11.8381    1.2279   59.4802 C.ar    1  ZINC000301324012   -0.6600
     11 S11       -12.8972    0.1298   60.3618 S.o2    1  ZINC000301324012    2.6900
     12 O12       -13.1326    0.7299   61.6283 O.2     1  ZINC000301324012   -0.9400
     13 O13       -13.9401   -0.2277   59.4654 O.2     1  ZINC000301324012   -0.9400
     14 N14       -12.0357   -1.2542   60.6529 N.am    1  ZINC000301324012   -1.0500
     15 C15       -11.5325   -2.0016   59.5847 C.ar    1  ZINC000301324012    0.1600
     16 C16       -12.3991   -2.5402   58.6429 C.ar    1  ZINC000301324012   -0.1600
     17 C17       -11.8985   -3.2785   57.5880 C.ar    1  ZINC000301324012   -0.0800
     18 C18       -10.5362   -3.4822   57.4691 C.ar    1  ZINC000301324012   -0.1200
     19 C19        -9.6694   -2.9474   58.4050 C.ar    1  ZINC000301324012   -0.0900
     20 C20       -10.1626   -2.2028   59.4592 C.ar    1  ZINC000301324012   -0.0600
     21 Cl21       -9.0744   -1.5318   60.6336 Cl      1  ZINC000301324012   -0.0600
     22 C22       -12.2557    1.7708   58.2780 C.ar    1  ZINC000301324012   -0.0200
     23 C23       -11.4333    2.6349   57.5852 C.ar    1  ZINC000301324012   -0.0800
     24 C24        -5.6586    4.3805   57.0630 C.ar    1  ZINC000301324012    0.1200
     25 C25        -5.3967    4.3247   58.4186 C.ar    1  ZINC000301324012   -0.1600
     26 C26        -4.0885    4.1596   58.8478 C.ar    1  ZINC000301324012   -0.0700
     27 C27        -3.0888    4.0563   57.8929 C.ar    1  ZINC000301324012   -0.1700
     28 C28        -3.4269    4.1209   56.5543 C.ar    1  ZINC000301324012    0.1100
     29 N29        -4.6827    4.2736   56.1823 N.ar    1  ZINC000301324012   -0.4900
     30 H30        -6.4975    4.9321   54.5439 H       1  ZINC000301324012    0.0700
     31 H31        -6.8368    3.2239   54.9116 H       1  ZINC000301324012    0.0600
     32 H32        -8.1784    4.3813   54.7424 H       1  ZINC000301324012    0.0700
     33 H33        -7.5851    2.8747   57.7733 H       1  ZINC000301324012    0.4100
     34 H34        -8.7862    2.6480   59.7093 H       1  ZINC000301324012    0.1400
     35 H35       -10.2727    1.1170   60.9326 H       1  ZINC000301324012    0.1500
     36 H36       -11.8805   -1.5460   61.5648 H       1  ZINC000301324012    0.4300
     37 H37       -13.4634   -2.3823   58.7352 H       1  ZINC000301324012    0.1700
     38 H38       -12.5723   -3.6976   56.8553 H       1  ZINC000301324012    0.1400
     39 H39       -10.1479   -4.0605   56.6437 H       1  ZINC000301324012    0.1400
     40 H40        -8.6058   -3.1084   58.3091 H       1  ZINC000301324012    0.1400
     41 H41       -13.2292    1.5203   57.8830 H       1  ZINC000301324012    0.1500
     42 H42       -11.7607    3.0583   56.6471 H       1  ZINC000301324012    0.1500
     43 H43        -6.2007    4.4091   59.1348 H       1  ZINC000301324012    0.1400
     44 H44        -3.8540    4.1129   59.9011 H       1  ZINC000301324012    0.1400
     45 H45        -2.0589    3.9274   58.1913 H       1  ZINC000301324012    0.1400
     46 H46        -2.6539    4.0416   55.8042 H       1  ZINC000301324012    0.1600
@<TRIPOS>BOND
     1     1     2    1
     2     1    30    1
     3     1    31    1
     4     1    32    1
     5     2     3    1
     6     2     4    1
     7     2    24    1
     8     4     5   am
     9     4    33    1
    10     5     6    2
    11     5     7    1
    12     7    23   ar
    13     7     8   ar
    14     8     9   ar
    15     8    34    1
    16     9    10   ar
    17     9    35    1
    18    10    11    1
    19    10    22   ar
    20    11    12    2
    21    11    13    2
    22    11    14   am
    23    14    15    1
    24    14    36    1
    25    15    20   ar
    26    15    16   ar
    27    16    17   ar
    28    16    37    1
    29    17    18   ar
    30    17    38    1
    31    18    19   ar
    32    18    39    1
    33    19    20   ar
    34    19    40    1
    35    20    21    1
    36    22    23   ar
    37    22    41    1
    38    23    42    1
    39    24    29   ar
    40    24    25   ar
    41    25    26   ar
    42    25    43    1
    43    26    27   ar
    44    26    44    1
    45    27    28   ar
    46    27    45    1
    47    28    29   ar
    48    28    46    1
@<TRIPOS>SUBSTRUCTURE
     1 ZINC000301324012        1 TEMP              0 ****  ****    0 ROOT


##########                                Name:    ZINC001058079801
##########                DOCK_Rotatable_Bonds:                   7
##########                         Heavy_Atoms:                  24
##########                    Molecular_Weight:             349.457
##########                DOCK_Rotatable_Bonds:                   7
##########                       Formal_Charge:           0.0200001
##########                     HBond_Acceptors:                   8
##########                        HBond_Donors:                   0
##########                         Heavy_Atoms:                  24
##########                          Grid_Score:          -29.558601
##########                     Grid_vdw_energy:          -28.428577
##########                      Grid_es_energy:           -1.130025
##########           Internal_energy_repulsive:           17.258192

@<TRIPOS>MOLECULE
ZINC001058079801
 47 49 1 0 0
SMALL
USER_CHARGES


@<TRIPOS>ATOM
      1 C1         -5.7386   -3.9537   56.5206 C.3     1  ZINC001058079801   -0.1500
      2 C2         -7.1359   -4.0574   57.1353 C.3     1  ZINC001058079801   -0.1200
      3 C3         -7.1364   -3.3958   58.5149 C.3     1  ZINC001058079801   -0.0300
      4 C4         -8.5563   -3.1260   58.9420 C.2     1  ZINC001058079801    0.2900
      5 N5         -9.5458   -3.8207   58.4605 N.2     1  ZINC001058079801   -0.4800
      6 S6        -10.9466   -3.1995   59.1954 S.3     1  ZINC001058079801    0.1900
      7 C7        -10.1026   -2.0194   60.1247 C.2     1  ZINC001058079801    0.2700
      8 N8        -10.6404   -1.1004   61.0076 N.3     1  ZINC001058079801   -0.4300
      9 C9        -11.9221   -0.5824   60.5122 C.3     1  ZINC001058079801    0.0700
     10 C10       -12.5558    0.3167   61.5761 C.3     1  ZINC001058079801   -0.1300
     11 C11       -11.6042    1.4739   61.8922 C.3     1  ZINC001058079801    0.1300
     12 N12       -12.1799    2.3056   62.9519 N.am    1  ZINC001058079801   -0.6100
     13 C13       -12.0899    1.8771   64.3498 C.3     1  ZINC001058079801    0.0700
     14 C14       -12.7924    3.4652   62.6407 C.2     1  ZINC001058079801    0.5200
     15 O15       -12.8655    3.8208   61.4835 O.2     1  ZINC001058079801   -0.5300
     16 C16       -13.3861    4.3200   63.7306 C.3     1  ZINC001058079801   -0.0600
     17 C17       -14.8302    3.9412   63.9355 C.2     1  ZINC001058079801   -0.1900
     18 C18       -15.5577    4.0135   65.0757 C.2     1  ZINC001058079801   -0.0400
     19 O19       -16.7857    3.5709   64.7711 O.3     1  ZINC001058079801    0.1000
     20 N20       -16.8674    3.2520   63.6075 N.2     1  ZINC001058079801   -0.3600
     21 C21       -15.7412    3.4341   62.9805 C.2     1  ZINC001058079801    0.0000
     22 C22       -10.2610    0.9066   62.3597 C.3     1  ZINC001058079801   -0.1200
     23 C23        -9.6938   -0.0096   61.2730 C.3     1  ZINC001058079801    0.0400
     24 N24        -8.8339   -2.1864   59.8159 N.2     1  ZINC001058079801   -0.5300
     25 H25        -5.7381   -4.4251   55.5378 H       1  ZINC001058079801    0.0600
     26 H26        -5.4629   -2.9040   56.4203 H       1  ZINC001058079801    0.0600
     27 H27        -5.0194   -4.4582   57.1659 H       1  ZINC001058079801    0.0600
     28 H28        -7.8551   -3.5530   56.4901 H       1  ZINC001058079801    0.0700
     29 H29        -7.4116   -5.1072   57.2357 H       1  ZINC001058079801    0.0700
     30 H30        -6.6598   -4.0594   59.2364 H       1  ZINC001058079801    0.1000
     31 H31        -6.5866   -2.4558   58.4672 H       1  ZINC001058079801    0.0900
     32 H32       -11.7536   -0.0057   59.6027 H       1  ZINC001058079801    0.0600
     33 H33       -12.5908   -1.4153   60.2952 H       1  ZINC001058079801    0.1000
     34 H34       -13.4996    0.7135   61.2021 H       1  ZINC001058079801    0.0800
     35 H35       -12.7373   -0.2628   62.4813 H       1  ZINC001058079801    0.0800
     36 H36       -11.4542    2.0770   60.9968 H       1  ZINC001058079801    0.1000
     37 H37       -11.1735    2.2684   64.7917 H       1  ZINC001058079801    0.0600
     38 H38       -12.9500    2.2556   64.9021 H       1  ZINC001058079801    0.0800
     39 H39       -12.0792    0.7881   64.3961 H       1  ZINC001058079801    0.0800
     40 H40       -12.8341    4.1623   64.6572 H       1  ZINC001058079801    0.1100
     41 H41       -13.3229    5.3697   63.4442 H       1  ZINC001058079801    0.1100
     42 H42       -15.2158    4.3594   66.0400 H       1  ZINC001058079801    0.2200
     43 H43       -15.5406    3.2315   61.9388 H       1  ZINC001058079801    0.1900
     44 H44        -9.5652    1.7249   62.5454 H       1  ZINC001058079801    0.0900
     45 H45       -10.4063    0.3364   63.2772 H       1  ZINC001058079801    0.0800
     46 H46        -8.7441   -0.4264   61.6087 H       1  ZINC001058079801    0.1000
     47 H47        -9.5358    0.5645   60.3601 H       1  ZINC001058079801    0.0700
@<TRIPOS>BOND
     1     1     2    1
     2     1    25    1
     3     1    26    1
     4     1    27    1
     5     2     3    1
     6     2    28    1
     7     2    29    1
     8     3     4    1
     9     3    30    1
    10     3    31    1
    11     4    24    1
    12     4     5    2
    13     5     6    1
    14     6     7    1
    15     7     8    1
    16     7    24    2
    17     8    23    1
    18     8     9    1
    19     9    10    1
    20     9    32    1
    21     9    33    1
    22    10    11    1
    23    10    34    1
    24    10    35    1
    25    11    12    1
    26    11    22    1
    27    11    36    1
    28    12    13    1
    29    12    14   am
    30    13    37    1
    31    13    38    1
    32    13    39    1
    33    14    15    2
    34    14    16    1
    35    16    17    1
    36    16    40    1
    37    16    41    1
    38    17    21    1
    39    17    18    2
    40    18    19    1
    41    18    42    1
    42    19    20    1
    43    20    21    2
    44    21    43    1
    45    22    23    1
    46    22    44    1
    47    22    45    1
    48    23    46    1
    49    23    47    1
@<TRIPOS>SUBSTRUCTURE
     1 ZINC001058079801        1 TEMP              0 ****  ****    0 ROOT


##########                                Name:    ZINC001300804061
##########                DOCK_Rotatable_Bonds:                   5
##########                         Heavy_Atoms:                  27
##########                    Molecular_Weight:              390.55
##########                DOCK_Rotatable_Bonds:                   5
##########                       Formal_Charge:                0.01
##########                     HBond_Acceptors:                   7
##########                        HBond_Donors:                   0
##########                         Heavy_Atoms:                  27
##########                          Grid_Score:          -29.524239
##########                     Grid_vdw_energy:          -29.519367
##########                      Grid_es_energy:           -0.004870
##########           Internal_energy_repulsive:          107.739349

@<TRIPOS>MOLECULE
ZINC001300804061
 57 60 1 0 0
SMALL
USER_CHARGES


@<TRIPOS>ATOM
      1 C1         -8.2598   -4.0076   58.0851 C.3     1  ZINC001300804061    0.0300
      2 O2         -9.5932   -3.9527   58.5960 O.3     1  ZINC001300804061   -0.3800
      3 C3        -10.0504   -2.6304   58.8865 C.3     1  ZINC001300804061    0.1000
      4 H4         -9.6765   -1.9415   58.1290 H       1  ZINC001300804061    0.0700
      5 C5         -9.5372   -2.2034   60.2635 C.3     1  ZINC001300804061    0.0500
      6 N6        -10.0241   -0.8526   60.5715 N.3     1  ZINC001300804061   -0.4600
      7 C7         -9.4726   -0.3835   61.7517 C.2     1  ZINC001300804061    0.3600
      8 N8         -8.8134   -1.0927   62.6388 N.2     1  ZINC001300804061   -0.3000
      9 N9         -8.4398   -0.3447   63.6147 N.2     1  ZINC001300804061   -0.2500
     10 C10        -8.8386    0.8916   63.4097 C.2     1  ZINC001300804061    0.2600
     11 C11        -8.6083    2.0438   64.2953 C.2     1  ZINC001300804061    0.0400
     12 C12        -7.9348    2.0206   65.4796 C.2     1  ZINC001300804061   -0.1300
     13 C13        -7.9573    3.3352   65.9843 C.2     1  ZINC001300804061   -0.2100
     14 C14        -8.6346    4.0888   65.0954 C.2     1  ZINC001300804061    0.0100
     15 C15        -8.9072    5.5654   65.2237 C.3     1  ZINC001300804061   -0.0800
     16 O16        -9.0215    3.3073   64.0737 O.3     1  ZINC001300804061   -0.1700
     17 N17        -9.5081    0.9042   62.2060 N.pl3   1  ZINC001300804061   -0.4600
     18 C18       -10.1348    2.0564   61.5536 C.3     1  ZINC001300804061    0.1200
     19 C19       -11.5900    2.1727   62.0115 C.3     1  ZINC001300804061   -0.1000
     20 H20       -12.1273    1.2626   61.7443 H       1  ZINC001300804061    0.0900
     21 C21       -12.2437    3.3673   61.3232 C.3     1  ZINC001300804061   -0.1200
     22 C22       -13.7534    3.3584   61.5446 C.3     1  ZINC001300804061   -0.1200
     23 C23       -14.0694    3.6939   63.0046 C.3     1  ZINC001300804061   -0.0800
     24 S24       -13.3668    2.3995   64.0695 S.3     1  ZINC001300804061   -0.2600
     25 C25       -11.6315    2.3602   63.5303 C.3     1  ZINC001300804061   -0.0700
     26 C26       -11.4911   -0.8166   60.6254 C.3     1  ZINC001300804061    0.0600
     27 C27       -12.0627   -1.2023   59.2592 C.3     1  ZINC001300804061   -0.1100
     28 C28       -11.5814   -2.6074   58.8873 C.3     1  ZINC001300804061   -0.0900
     29 H29       -11.9552   -3.3256   59.6171 H       1  ZINC001300804061    0.0800
     30 C30       -12.1016   -2.9746   57.4960 C.3     1  ZINC001300804061   -0.1400
     31 H31        -8.2020   -3.4365   57.1584 H       1  ZINC001300804061    0.0400
     32 H32        -7.5725   -3.5833   58.8169 H       1  ZINC001300804061    0.0400
     33 H33        -7.9879   -5.0450   57.8901 H       1  ZINC001300804061    0.0900
     34 H34        -9.8995   -2.9010   61.0186 H       1  ZINC001300804061    0.0700
     35 H35        -8.4472   -2.2047   60.2613 H       1  ZINC001300804061    0.0800
     36 H36        -7.4735    1.1605   65.9420 H       1  ZINC001300804061    0.1600
     37 H37        -7.5151    3.6752   66.9091 H       1  ZINC001300804061    0.1600
     38 H38        -8.0958    6.1262   64.7598 H       1  ZINC001300804061    0.0900
     39 H39        -9.8464    5.8061   64.7255 H       1  ZINC001300804061    0.0800
     40 H40        -8.9766    5.8318   66.2783 H       1  ZINC001300804061    0.0900
     41 H41        -9.5954    2.9644   61.8232 H       1  ZINC001300804061    0.1100
     42 H42       -10.1037    1.9228   60.4721 H       1  ZINC001300804061    0.1000
     43 H43       -11.8266    4.2884   61.7302 H       1  ZINC001300804061    0.0700
     44 H44       -12.0375    3.3225   60.2539 H       1  ZINC001300804061    0.0800
     45 H45       -14.2189    4.0990   60.8942 H       1  ZINC001300804061    0.0800
     46 H46       -14.1483    2.3708   61.3066 H       1  ZINC001300804061    0.0800
     47 H47       -13.6288    4.6572   63.2616 H       1  ZINC001300804061    0.0800
     48 H48       -15.1496    3.7353   63.1443 H       1  ZINC001300804061    0.1100
     49 H49       -11.1178    1.5288   64.0131 H       1  ZINC001300804061    0.1000
     50 H50       -11.1445    3.2979   63.7980 H       1  ZINC001300804061    0.0900
     51 H51       -11.8444   -1.5207   61.3788 H       1  ZINC001300804061    0.0600
     52 H52       -11.8204    0.1894   60.8860 H       1  ZINC001300804061    0.0800
     53 H53       -13.1517   -1.1905   59.3038 H       1  ZINC001300804061    0.0800
     54 H54       -11.7211   -0.4905   58.5077 H       1  ZINC001300804061    0.0800
     55 H55       -11.7254   -2.2573   56.7666 H       1  ZINC001300804061    0.0500
     56 H56       -11.7585   -3.9749   57.2322 H       1  ZINC001300804061    0.0600
     57 H57       -13.1913   -2.9531   57.4982 H       1  ZINC001300804061    0.0600
@<TRIPOS>BOND
     1     1     2    1
     2     1    31    1
     3     1    32    1
     4     1    33    1
     5     2     3    1
     6     3     4    1
     7     3    28    1
     8     3     5    1
     9     5     6    1
    10     5    34    1
    11     5    35    1
    12     6     7    1
    13     6    26    1
    14     7    17    1
    15     7     8    2
    16     8     9    1
    17     9    10    2
    18    10    11    1
    19    10    17    1
    20    11    16    1
    21    11    12    2
    22    12    13    1
    23    12    36    1
    24    13    14    2
    25    13    37    1
    26    14    15    1
    27    14    16    1
    28    15    38    1
    29    15    39    1
    30    15    40    1
    31    17    18    1
    32    18    19    1
    33    18    41    1
    34    18    42    1
    35    19    20    1
    36    19    25    1
    37    19    21    1
    38    21    22    1
    39    21    43    1
    40    21    44    1
    41    22    23    1
    42    22    45    1
    43    22    46    1
    44    23    24    1
    45    23    47    1
    46    23    48    1
    47    24    25    1
    48    25    49    1
    49    25    50    1
    50    26    27    1
    51    26    51    1
    52    26    52    1
    53    27    28    1
    54    27    53    1
    55    27    54    1
    56    28    29    1
    57    28    30    1
    58    30    55    1
    59    30    56    1
    60    30    57    1
@<TRIPOS>SUBSTRUCTURE
     1 ZINC001300804061        1 TEMP              0 ****  ****    0 ROOT


##########                                Name:    ZINC000469435497
##########                DOCK_Rotatable_Bonds:                   6
##########                         Heavy_Atoms:                  27
##########                    Molecular_Weight:             364.444
##########                DOCK_Rotatable_Bonds:                   6
##########                       Formal_Charge:           0.0300001
##########                     HBond_Acceptors:                   5
##########                        HBond_Donors:                   2
##########                         Heavy_Atoms:                  27
##########                          Grid_Score:          -29.523867
##########                     Grid_vdw_energy:          -28.333874
##########                      Grid_es_energy:           -1.189993
##########           Internal_energy_repulsive:            6.214244

@<TRIPOS>MOLECULE
ZINC000469435497
 51 54 1 0 0
SMALL
USER_CHARGES


@<TRIPOS>ATOM
      1 C1        -14.3798   -3.0482   59.9791 C.3     1  ZINC000469435497   -0.1600
      2 C2        -13.7920   -2.7007   58.6100 C.3     1  ZINC000469435497    0.1000
      3 C3        -14.6266   -3.3246   57.4899 C.3     1  ZINC000469435497   -0.1400
      4 C4        -13.6871   -1.1676   58.4319 C.3     1  ZINC000469435497   -0.1000
      5 C5        -12.2722   -0.8929   58.9035 C.ar    1  ZINC000469435497   -0.1500
      6 C6        -11.6285    0.2695   59.2631 C.ar    1  ZINC000469435497   -0.0700
      7 C7        -10.3010    0.2289   59.6721 C.ar    1  ZINC000469435497    0.1100
      8 N8         -9.6405    1.4086   60.0397 N.am    1  ZINC000469435497   -0.6600
      9 C9         -9.4073    2.3650   59.1192 C.2     1  ZINC000469435497    0.5100
     10 O10        -9.7691    2.2045   57.9727 O.2     1  ZINC000469435497   -0.5200
     11 C11        -8.6969    3.6340   59.5145 C.3     1  ZINC000469435497    0.1000
     12 N12        -7.3999    3.6990   58.8366 N.am    1  ZINC000469435497   -0.7200
     13 C13        -7.3009    4.2824   57.6257 C.2     1  ZINC000469435497    0.5700
     14 O14        -8.2881    4.7534   57.0955 O.2     1  ZINC000469435497   -0.5300
     15 C15        -5.9915    4.3496   56.9423 C.ar    1  ZINC000469435497   -0.1400
     16 C16        -5.8848    4.9518   55.6880 C.ar    1  ZINC000469435497   -0.0800
     17 C17        -4.6600    5.0099   55.0583 C.ar    1  ZINC000469435497   -0.1100
     18 C18        -3.5338    4.4738   55.6632 C.ar    1  ZINC000469435497   -0.0700
     19 C19        -2.0996    4.4140   55.1811 C.3     1  ZINC000469435497   -0.0900
     20 C20        -1.2617    4.1126   56.4416 C.3     1  ZINC000469435497   -0.1200
     21 C21        -2.2729    3.3737   57.3435 C.3     1  ZINC000469435497   -0.0800
     22 C22        -3.6332    3.8751   56.9072 C.ar    1  ZINC000469435497   -0.1100
     23 C23        -4.8550    3.8165   57.5502 C.ar    1  ZINC000469435497   -0.0400
     24 C24        -9.6332   -0.9875   59.7145 C.ar    1  ZINC000469435497   -0.1000
     25 C25       -10.2804   -2.1493   59.3497 C.ar    1  ZINC000469435497   -0.1200
     26 C26       -11.6097   -2.1136   58.9362 C.ar    1  ZINC000469435497    0.1000
     27 O27       -12.4214   -3.1260   58.5214 O.3     1  ZINC000469435497   -0.3000
     28 H28       -13.7895   -2.5691   60.7603 H       1  ZINC000469435497    0.0600
     29 H29       -15.4092   -2.6943   60.0331 H       1  ZINC000469435497    0.0800
     30 H30       -14.3594   -4.1290   60.1196 H       1  ZINC000469435497    0.0700
     31 H31       -15.6438   -2.9352   57.5346 H       1  ZINC000469435497    0.0800
     32 H32       -14.1844   -3.0757   56.5253 H       1  ZINC000469435497    0.0700
     33 H33       -14.6466   -4.4076   57.6118 H       1  ZINC000469435497    0.0700
     34 H34       -13.8102   -0.8877   57.3856 H       1  ZINC000469435497    0.0900
     35 H35       -14.4140   -0.6519   59.0596 H       1  ZINC000469435497    0.0900
     36 H36       -12.1545    1.2121   59.2270 H       1  ZINC000469435497    0.1400
     37 H37        -9.3513    1.5370   60.9566 H       1  ZINC000469435497    0.4200
     38 H38        -9.3013    4.4938   59.2257 H       1  ZINC000469435497    0.1100
     39 H39        -8.5437    3.6435   60.5937 H       1  ZINC000469435497    0.1100
     40 H40        -6.6123    3.3221   59.2592 H       1  ZINC000469435497    0.4100
     41 H41        -6.7591    5.3708   55.2120 H       1  ZINC000469435497    0.1300
     42 H42        -4.5773    5.4756   54.0873 H       1  ZINC000469435497    0.1300
     43 H43        -1.9801    3.6163   54.4478 H       1  ZINC000469435497    0.0900
     44 H44        -1.8049    5.3713   54.7511 H       1  ZINC000469435497    0.0800
     45 H45        -0.4158    3.4691   56.1998 H       1  ZINC000469435497    0.0800
     46 H46        -0.9250    5.0360   56.9127 H       1  ZINC000469435497    0.0700
     47 H47        -2.1997    2.2970   57.1905 H       1  ZINC000469435497    0.0800
     48 H48        -2.0967    3.6206   58.3904 H       1  ZINC000469435497    0.0800
     49 H49        -4.9306    3.3542   58.5233 H       1  ZINC000469435497    0.1400
     50 H50        -8.6023   -1.0239   60.0344 H       1  ZINC000469435497    0.1400
     51 H51        -9.7539   -3.0916   59.3851 H       1  ZINC000469435497    0.1300
@<TRIPOS>BOND
     1     1     2    1
     2     1    28    1
     3     1    29    1
     4     1    30    1
     5     2    27    1
     6     2     3    1
     7     2     4    1
     8     3    31    1
     9     3    32    1
    10     3    33    1
    11     4     5    1
    12     4    34    1
    13     4    35    1
    14     5    26   ar
    15     5     6   ar
    16     6     7   ar
    17     6    36    1
    18     7     8    1
    19     7    24   ar
    20     8     9   am
    21     8    37    1
    22     9    10    2
    23     9    11    1
    24    11    12    1
    25    11    38    1
    26    11    39    1
    27    12    13   am
    28    12    40    1
    29    13    14    2
    30    13    15    1
    31    15    23   ar
    32    15    16   ar
    33    16    17   ar
    34    16    41    1
    35    17    18   ar
    36    17    42    1
    37    18    22   ar
    38    18    19    1
    39    19    20    1
    40    19    43    1
    41    19    44    1
    42    20    21    1
    43    20    45    1
    44    20    46    1
    45    21    22    1
    46    21    47    1
    47    21    48    1
    48    22    23   ar
    49    23    49    1
    50    24    25   ar
    51    24    50    1
    52    25    26   ar
    53    25    51    1
    54    26    27    1
@<TRIPOS>SUBSTRUCTURE
     1 ZINC000469435497        1 TEMP              0 ****  ****    0 ROOT


##########                                Name:    ZINC001284642199
##########                DOCK_Rotatable_Bonds:                   8
##########                         Heavy_Atoms:                  25
##########                    Molecular_Weight:             346.516
##########                DOCK_Rotatable_Bonds:                   8
##########                       Formal_Charge:         -3.8743e-07
##########                     HBond_Acceptors:                   5
##########                        HBond_Donors:                   2
##########                         Heavy_Atoms:                  25
##########                          Grid_Score:          -29.500298
##########                     Grid_vdw_energy:          -28.644253
##########                      Grid_es_energy:           -0.856045
##########           Internal_energy_repulsive:           19.573605

@<TRIPOS>MOLECULE
ZINC001284642199
 59 60 1 0 0
SMALL
USER_CHARGES


@<TRIPOS>ATOM
      1 C1         -6.4354   -4.2600   56.2443 C.3     1  ZINC001284642199   -0.1100
      2 C2         -7.5132   -3.9040   57.2355 C.ar    1  ZINC001284642199   -0.1900
      3 C3         -7.1889   -3.4598   58.5077 C.ar    1  ZINC001284642199    0.1500
      4 N4         -8.1623   -3.1559   59.3511 N.ar    1  ZINC001284642199   -0.4900
      5 C5         -9.4257   -3.2713   58.9939 C.ar    1  ZINC001284642199    0.3100
      6 C6        -10.5035   -2.9152   59.9852 C.3     1  ZINC001284642199    0.1300
      7 N7        -11.1171   -1.6364   59.6029 N.3     1  ZINC001284642199   -0.6800
      8 C8        -12.1338   -1.8311   58.5607 C.3     1  ZINC001284642199    0.0500
      9 C9        -13.2218   -0.7649   58.7039 C.3     1  ZINC001284642199    0.1600
     10 H10       -13.4462   -0.6145   59.7599 H       1  ZINC001284642199    0.1000
     11 N11       -12.7519    0.4938   58.1202 N.am    1  ZINC001284642199   -0.7200
     12 C12       -12.7742    1.6256   58.8517 C.2     1  ZINC001284642199    0.5200
     13 O13       -13.1820    1.6017   59.9937 O.2     1  ZINC001284642199   -0.5300
     14 C14       -12.2924    2.9209   58.2507 C.3     1  ZINC001284642199   -0.1100
     15 H15       -11.8303    3.5316   59.0264 H       1  ZINC001284642199    0.0900
     16 C16       -11.2655    2.6243   57.1559 C.3     1  ZINC001284642199   -0.1000
     17 C17       -10.7764    3.9393   56.5457 C.3     1  ZINC001284642199   -0.1100
     18 C18       -11.9626    4.6936   55.9416 C.3     1  ZINC001284642199   -0.0900
     19 H19       -12.4246    4.0828   55.1659 H       1  ZINC001284642199    0.0700
     20 C20       -11.4734    6.0087   55.3315 C.3     1  ZINC001284642199   -0.1500
     21 C21       -12.9894    4.9901   57.0364 C.3     1  ZINC001284642199   -0.1100
     22 C22       -13.4786    3.6752   57.6465 C.3     1  ZINC001284642199   -0.1100
     23 C23       -14.4857   -1.2248   57.9745 C.3     1  ZINC001284642199   -0.0800
     24 C24       -15.4789   -0.0639   57.8937 C.3     1  ZINC001284642199   -0.1400
     25 C25       -14.1206   -1.6831   56.5611 C.3     1  ZINC001284642199   -0.1400
     26 C26       -15.1214   -2.3875   58.7394 C.3     1  ZINC001284642199   -0.1300
     27 N27        -9.7716   -3.6949   57.7948 N.ar    1  ZINC001284642199   -0.5100
     28 C28        -8.8528   -4.0123   56.8967 C.ar    1  ZINC001284642199    0.1500
     29 H29        -6.1829   -5.3156   56.3457 H       1  ZINC001284642199    0.0800
     30 H30        -6.7938   -4.0678   55.2331 H       1  ZINC001284642199    0.0700
     31 H31        -5.5499   -3.6545   56.4372 H       1  ZINC001284642199    0.0700
     32 H32        -6.1556   -3.3634   58.8068 H       1  ZINC001284642199    0.1700
     33 H33       -10.0671   -2.8258   60.9799 H       1  ZINC001284642199    0.1000
     34 H34       -11.2641   -3.6959   59.9908 H       1  ZINC001284642199    0.0600
     35 H35       -10.4166   -0.9738   59.3054 H       1  ZINC001284642199    0.3400
     36 H36       -12.5784   -2.8206   58.6671 H       1  ZINC001284642199    0.0900
     37 H37       -11.6686   -1.7457   57.5787 H       1  ZINC001284642199    0.0400
     38 H38       -12.4246    0.5128   57.2073 H       1  ZINC001284642199    0.3900
     39 H39       -11.7275    2.0135   56.3803 H       1  ZINC001284642199    0.0700
     40 H40       -10.4205    2.0869   57.5862 H       1  ZINC001284642199    0.0700
     41 H41       -10.0449    3.7280   55.7658 H       1  ZINC001284642199    0.0700
     42 H42       -10.3143    4.5501   57.3213 H       1  ZINC001284642199    0.0600
     43 H43       -10.7419    5.7973   54.5514 H       1  ZINC001284642199    0.0500
     44 H44       -12.3184    6.5460   54.9010 H       1  ZINC001284642199    0.0500
     45 H45       -11.0114    6.6194   56.1070 H       1  ZINC001284642199    0.0500
     46 H46       -12.5274    5.6009   57.8120 H       1  ZINC001284642199    0.0600
     47 H47       -13.8344    5.5275   56.6061 H       1  ZINC001284642199    0.0700
     48 H48       -13.9406    3.0644   56.8709 H       1  ZINC001284642199    0.0700
     49 H49       -14.2100    3.8864   58.4265 H       1  ZINC001284642199    0.0600
     50 H50       -15.0260    0.7645   57.3488 H       1  ZINC001284642199    0.0600
     51 H51       -16.3793   -0.3915   57.3741 H       1  ZINC001284642199    0.0600
     52 H52       -15.7390    0.2626   58.9006 H       1  ZINC001284642199    0.0500
     53 H53       -13.4131   -2.5102   56.6186 H       1  ZINC001284642199    0.0600
     54 H54       -15.0211   -2.0107   56.0415 H       1  ZINC001284642199    0.0600
     55 H55       -13.6678   -0.8548   56.0162 H       1  ZINC001284642199    0.0600
     56 H56       -15.3815   -2.0611   59.7462 H       1  ZINC001284642199    0.0500
     57 H57       -16.0218   -2.7151   58.2197 H       1  ZINC001284642199    0.0500
     58 H58       -14.4139   -3.2146   58.7969 H       1  ZINC001284642199    0.0600
     59 H59        -9.1430   -4.3551   55.9145 H       1  ZINC001284642199    0.1700
@<TRIPOS>BOND
     1     1     2    1
     2     1    29    1
     3     1    30    1
     4     1    31    1
     5     2    28   ar
     6     2     3   ar
     7     3     4   ar
     8     3    32    1
     9     4     5   ar
    10     5     6    1
    11     5    27   ar
    12     6     7    1
    13     6    33    1
    14     6    34    1
    15     7     8    1
    16     7    35    1
    17     8     9    1
    18     8    36    1
    19     8    37    1
    20     9    10    1
    21     9    11    1
    22     9    23    1
    23    11    12   am
    24    11    38    1
    25    12    13    2
    26    12    14    1
    27    14    15    1
    28    14    22    1
    29    14    16    1
    30    16    17    1
    31    16    39    1
    32    16    40    1
    33    17    18    1
    34    17    41    1
    35    17    42    1
    36    18    19    1
    37    18    20    1
    38    18    21    1
    39    20    43    1
    40    20    44    1
    41    20    45    1
    42    21    22    1
    43    21    46    1
    44    21    47    1
    45    22    48    1
    46    22    49    1
    47    23    24    1
    48    23    25    1
    49    23    26    1
    50    24    50    1
    51    24    51    1
    52    24    52    1
    53    25    53    1
    54    25    54    1
    55    25    55    1
    56    26    56    1
    57    26    57    1
    58    26    58    1
    59    27    28   ar
    60    28    59    1
@<TRIPOS>SUBSTRUCTURE
     1 ZINC001284642199        1 TEMP              0 ****  ****    0 ROOT


##########                                Name:    ZINC000821214121
##########                DOCK_Rotatable_Bonds:                  10
##########                         Heavy_Atoms:                  23
##########                    Molecular_Weight:             338.434
##########                DOCK_Rotatable_Bonds:                  10
##########                       Formal_Charge:          0.00999954
##########                     HBond_Acceptors:                   9
##########                        HBond_Donors:                   3
##########                         Heavy_Atoms:                  23
##########                          Grid_Score:          -29.493362
##########                     Grid_vdw_energy:          -27.848816
##########                      Grid_es_energy:           -1.644547
##########           Internal_energy_repulsive:           13.229746

@<TRIPOS>MOLECULE
ZINC000821214121
 45 46 1 0 0
SMALL
USER_CHARGES


@<TRIPOS>ATOM
      1 C1        -14.6126   -3.8822   58.3481 C.3     1  ZINC000821214121   -0.1500
      2 C2        -15.1882   -2.4653   58.3903 C.3     1  ZINC000821214121    0.0500
      3 N3        -14.1051   -1.4910   58.2013 N.3     1  ZINC000821214121   -0.5200
      4 C4        -13.8460   -1.2622   56.7736 C.3     1  ZINC000821214121    0.0600
      5 C5        -15.0925   -0.6635   56.1186 C.3     1  ZINC000821214121   -0.1200
      6 C6        -14.6842    0.5023   55.2158 C.3     1  ZINC000821214121    0.0800
      7 O7        -13.7936    0.0309   54.2026 O.3     1  ZINC000821214121   -0.5700
      8 C8        -14.4059   -0.2291   58.8905 C.3     1  ZINC000821214121    0.0400
      9 C9        -13.5373   -0.1063   60.1158 C.2     1  ZINC000821214121    0.5000
     10 O10       -13.9859   -0.3856   61.2078 O.2     1  ZINC000821214121   -0.4800
     11 N11       -12.2621    0.3136   59.9986 N.am    1  ZINC000821214121   -0.6300
     12 C12       -11.4583    0.4255   61.1317 C.2     1  ZINC000821214121    0.0800
     13 C13       -10.3984   -0.3787   61.4286 C.2     1  ZINC000821214121   -0.1000
     14 C14        -9.9649   -1.4969   60.5571 C.2     1  ZINC000821214121    0.2900
     15 N15       -10.6499   -2.5952   60.2949 N.2     1  ZINC000821214121   -0.3300
     16 N16        -9.8442   -3.3540   59.4300 N.pl3   1  ZINC000821214121   -0.2900
     17 N17        -8.7605   -2.6838   59.2341 N.2     1  ZINC000821214121    0.0200
     18 N18        -8.8104   -1.5771   59.8865 N.2     1  ZINC000821214121   -0.2900
     19 C19        -9.7580   -0.0562   62.6249 C.2     1  ZINC000821214121   -0.0500
     20 C20        -8.5642   -0.8214   63.1352 C.3     1  ZINC000821214121   -0.1000
     21 C21       -10.2777    0.9755   63.2813 C.2     1  ZINC000821214121   -0.2400
     22 C22        -9.7617    1.5112   64.5920 C.3     1  ZINC000821214121   -0.0800
     23 S23       -11.6485    1.6309   62.3979 S.3     1  ZINC000821214121    0.2600
     24 H24       -14.0522   -4.0194   57.4231 H       1  ZINC000821214121    0.0700
     25 H25       -13.9492   -4.0306   59.2002 H       1  ZINC000821214121    0.0500
     26 H26       -15.4263   -4.6063   58.3906 H       1  ZINC000821214121    0.0600
     27 H27       -15.9248   -2.3485   57.5954 H       1  ZINC000821214121    0.0900
     28 H28       -15.6653   -2.2956   59.3555 H       1  ZINC000821214121    0.0400
     29 H29       -13.0098   -0.5719   56.6621 H       1  ZINC000821214121    0.0400
     30 H30       -13.6021   -2.2092   56.2922 H       1  ZINC000821214121    0.0800
     31 H31       -15.5921   -1.4271   55.5225 H       1  ZINC000821214121    0.0800
     32 H32       -15.7718   -0.3038   56.8915 H       1  ZINC000821214121    0.0700
     33 H33       -15.5722    0.9288   54.7493 H       1  ZINC000821214121    0.0400
     34 H34       -14.1847    1.2659   55.8120 H       1  ZINC000821214121    0.0500
     35 H35       -14.1726   -0.6519   53.6323 H       1  ZINC000821214121    0.3800
     36 H36       -14.2085    0.6072   58.2199 H       1  ZINC000821214121    0.0700
     37 H37       -15.4550   -0.2177   59.1862 H       1  ZINC000821214121    0.1200
     38 H38       -11.9035    0.5380   59.1256 H       1  ZINC000821214121    0.4200
     39 H39       -10.0622   -4.2201   59.0515 H       1  ZINC000821214121    0.4700
     40 H40        -7.6506   -0.3676   62.7512 H       1  ZINC000821214121    0.0700
     41 H41        -8.5535   -0.7937   64.2247 H       1  ZINC000821214121    0.0700
     42 H42        -8.6251   -1.8564   62.7987 H       1  ZINC000821214121    0.0900
     43 H43        -9.0113    2.2782   64.4009 H       1  ZINC000821214121    0.0700
     44 H44       -10.5869    1.9433   65.1581 H       1  ZINC000821214121    0.0700
     45 H45        -9.3138    0.6994   65.1651 H       1  ZINC000821214121    0.0800
@<TRIPOS>BOND
     1     1     2    1
     2     1    24    1
     3     1    25    1
     4     1    26    1
     5     2     3    1
     6     2    27    1
     7     2    28    1
     8     3     4    1
     9     3     8    1
    10     4     5    1
    11     4    29    1
    12     4    30    1
    13     5     6    1
    14     5    31    1
    15     5    32    1
    16     6     7    1
    17     6    33    1
    18     6    34    1
    19     7    35    1
    20     8     9    1
    21     8    36    1
    22     8    37    1
    23     9    10    2
    24     9    11   am
    25    11    12    1
    26    11    38    1
    27    12    23    1
    28    12    13    2
    29    13    14    1
    30    13    19    1
    31    14    18    1
    32    14    15    2
    33    15    16    1
    34    16    17    1
    35    16    39    1
    36    17    18    2
    37    19    20    1
    38    19    21    2
    39    20    40    1
    40    20    41    1
    41    20    42    1
    42    21    22    1
    43    21    23    1
    44    22    43    1
    45    22    44    1
    46    22    45    1
@<TRIPOS>SUBSTRUCTURE
     1 ZINC000821214121        1 TEMP              0 ****  ****    0 ROOT


##########                                Name:    ZINC000888733009
##########                DOCK_Rotatable_Bonds:                   6
##########                         Heavy_Atoms:                  25
##########                    Molecular_Weight:             360.434
##########                DOCK_Rotatable_Bonds:                   6
##########                       Formal_Charge:        -1.02073e-06
##########                     HBond_Acceptors:                   7
##########                        HBond_Donors:                   2
##########                         Heavy_Atoms:                  25
##########                          Grid_Score:          -29.479815
##########                     Grid_vdw_energy:          -29.387577
##########                      Grid_es_energy:           -0.092237
##########           Internal_energy_repulsive:           13.868772

@<TRIPOS>MOLECULE
ZINC000888733009
 45 48 1 0 0
SMALL
USER_CHARGES


@<TRIPOS>ATOM
      1 C1         -7.9480    2.7929   66.8228 C.3     1  ZINC000888733009   -0.1500
      2 C2         -8.8556    3.3810   65.7405 C.3     1  ZINC000888733009    0.0700
      3 H3         -9.3688    4.2660   66.1167 H       1  ZINC000888733009    0.0700
      4 C4         -9.8819    2.3244   65.2659 C.3     1  ZINC000888733009   -0.1300
      5 C5        -10.0000    2.5866   63.7585 C.3     1  ZINC000888733009   -0.1100
      6 C6         -9.8451    1.3645   62.8568 C.3     1  ZINC000888733009   -0.1300
      7 C7        -10.9347    1.9920   61.9679 C.3     1  ZINC000888733009    0.1200
      8 N8        -11.9050    1.0208   61.4566 N.am    1  ZINC000888733009   -0.7100
      9 C9        -11.4781   -0.0801   60.8067 C.2     1  ZINC000888733009    0.5900
     10 O10       -10.2864   -0.2682   60.6460 O.2     1  ZINC000888733009   -0.5600
     11 C11       -12.4491   -1.0510   60.2935 C.2     1  ZINC000888733009   -0.2400
     12 C12       -12.0989   -2.1773   59.5942 C.2     1  ZINC000888733009    0.0800
     13 N13       -10.7983   -2.5404   59.2857 N.am    1  ZINC000888733009   -0.6100
     14 C14       -10.5098   -3.0442   58.0694 C.2     1  ZINC000888733009    0.6000
     15 O15       -11.3917   -3.1788   57.2416 O.2     1  ZINC000888733009   -0.4900
     16 C16        -9.1337   -3.4301   57.7434 C.2     1  ZINC000888733009   -0.0900
     17 C17        -8.1014   -3.5468   58.6301 C.2     1  ZINC000888733009   -0.1000
     18 C18        -6.9747   -3.9351   57.8887 C.2     1  ZINC000888733009   -0.2300
     19 C19        -7.3633   -4.0372   56.5984 C.2     1  ZINC000888733009    0.0100
     20 O20        -8.6661   -3.7377   56.5157 O.3     1  ZINC000888733009   -0.1600
     21 S21       -13.4838   -3.0696   59.1572 S.3     1  ZINC000888733009    0.3000
     22 C22       -14.5632   -1.9176   59.9232 C.2     1  ZINC000888733009   -0.2800
     23 C23       -13.8787   -0.9265   60.4759 C.2     1  ZINC000888733009   -0.0900
     24 C24       -11.4194    2.7461   63.2199 C.3     1  ZINC000888733009   -0.1400
     25 C25        -9.0421    3.7516   63.4762 C.3     1  ZINC000888733009    0.0700
     26 O26        -8.0856    3.7089   64.5622 O.3     1  ZINC000888733009   -0.3700
     27 H27        -7.2144    3.5395   67.1270 H       1  ZINC000888733009    0.0600
     28 H28        -8.5502    2.5032   67.6839 H       1  ZINC000888733009    0.0700
     29 H29        -7.4328    1.9170   66.4285 H       1  ZINC000888733009    0.0600
     30 H30        -9.5090    1.3172   65.4518 H       1  ZINC000888733009    0.0800
     31 H31       -10.8428    2.4755   65.7578 H       1  ZINC000888733009    0.0800
     32 H32        -8.8705    1.2981   62.3733 H       1  ZINC000888733009    0.0800
     33 H33       -10.1498    0.4307   63.3294 H       1  ZINC000888733009    0.0900
     34 H34       -10.5399    2.6450   61.1896 H       1  ZINC000888733009    0.1200
     35 H35       -12.8547    1.1700   61.5857 H       1  ZINC000888733009    0.4000
     36 H36       -10.0952   -2.4320   59.9450 H       1  ZINC000888733009    0.4400
     37 H37        -8.1438   -3.3736   59.6953 H       1  ZINC000888733009    0.1700
     38 H38        -5.9833   -4.1178   58.2764 H       1  ZINC000888733009    0.1600
     39 H39        -6.7289   -4.3183   55.7709 H       1  ZINC000888733009    0.2200
     40 H40       -15.6392   -2.0065   59.9450 H       1  ZINC000888733009    0.1700
     41 H41       -14.3418   -0.1048   61.0021 H       1  ZINC000888733009    0.1500
     42 H42       -12.1692    2.2030   63.7951 H       1  ZINC000888733009    0.0900
     43 H43       -11.7000    3.7814   63.0260 H       1  ZINC000888733009    0.0800
     44 H44        -8.5393    3.6075   62.5199 H       1  ZINC000888733009    0.0900
     45 H45        -9.5821    4.6984   63.4842 H       1  ZINC000888733009    0.0700
@<TRIPOS>BOND
     1     1     2    1
     2     1    27    1
     3     1    28    1
     4     1    29    1
     5     2     3    1
     6     2    26    1
     7     2     4    1
     8     4     5    1
     9     4    30    1
    10     4    31    1
    11     5    24    1
    12     5     6    1
    13     5    25    1
    14     6     7    1
    15     6    32    1
    16     6    33    1
    17     7     8    1
    18     7    24    1
    19     7    34    1
    20     8     9   am
    21     8    35    1
    22     9    10    2
    23     9    11    1
    24    11    23    1
    25    11    12    2
    26    12    13    1
    27    12    21    1
    28    13    14   am
    29    13    36    1
    30    14    15    2
    31    14    16    1
    32    16    20    1
    33    16    17    2
    34    17    18    1
    35    17    37    1
    36    18    19    2
    37    18    38    1
    38    19    20    1
    39    19    39    1
    40    21    22    1
    41    22    23    2
    42    22    40    1
    43    23    41    1
    44    24    42    1
    45    24    43    1
    46    25    26    1
    47    25    44    1
    48    25    45    1
@<TRIPOS>SUBSTRUCTURE
     1 ZINC000888733009        1 TEMP              0 ****  ****    0 ROOT


##########                                Name:    ZINC000329637067
##########                DOCK_Rotatable_Bonds:                   5
##########                         Heavy_Atoms:                  26
##########                    Molecular_Weight:             362.429
##########                DOCK_Rotatable_Bonds:                   5
##########                       Formal_Charge:           0.0199998
##########                     HBond_Acceptors:                   8
##########                        HBond_Donors:                   0
##########                         Heavy_Atoms:                  26
##########                          Grid_Score:          -29.449871
##########                     Grid_vdw_energy:          -25.435425
##########                      Grid_es_energy:           -4.014445
##########           Internal_energy_repulsive:           43.259636

@<TRIPOS>MOLECULE
ZINC000329637067
 52 54 1 0 0
SMALL
USER_CHARGES


@<TRIPOS>ATOM
      1 C1         -9.4471   -1.9228   59.9650 C.3     1  ZINC000329637067   -0.1300
      2 C2         -9.9147   -0.9291   60.9970 C.2     1  ZINC000329637067    0.2200
      3 C3         -9.1937   -0.7250   62.1323 C.2     1  ZINC000329637067   -0.2900
      4 C4         -9.6530    0.2034   63.0711 C.2     1  ZINC000329637067    0.2800
      5 C5         -8.8718    0.4477   64.3366 C.3     1  ZINC000329637067   -0.1200
      6 N6        -10.7703    0.8647   62.8467 N.2     1  ZINC000329637067   -0.5500
      7 C7        -11.4737    0.6601   61.7303 C.2     1  ZINC000329637067    0.6400
      8 O8        -12.5047    1.2852   61.5466 O.2     1  ZINC000329637067   -0.5300
      9 N9        -11.0584   -0.2220   60.8022 N.am    1  ZINC000329637067   -0.5000
     10 C10       -11.8473   -0.4287   59.5852 C.3     1  ZINC000329637067    0.0700
     11 C11       -12.8187   -1.5603   59.8024 C.2     1  ZINC000329637067    0.5100
     12 O12       -13.2911   -1.7510   60.9031 O.2     1  ZINC000329637067   -0.5200
     13 N13       -13.1626   -2.3601   58.7736 N.am    1  ZINC000329637067   -0.6100
     14 C14       -14.1084   -3.4672   58.9698 C.3     1  ZINC000329637067    0.1000
     15 C15       -15.2410   -3.3354   57.9469 C.3     1  ZINC000329637067   -0.1400
     16 C16       -14.6454   -3.2596   56.5392 C.3     1  ZINC000329637067   -0.1000
     17 C17       -13.7486   -2.0245   56.4287 C.3     1  ZINC000329637067   -0.1200
     18 H18       -14.3326   -1.1302   56.6462 H       1  ZINC000329637067    0.1000
     19 C19       -13.1889   -1.9325   55.0326 C.2     1  ZINC000329637067    0.5300
     20 O20       -12.1355   -2.4704   54.7649 O.2     1  ZINC000329637067   -0.5300
     21 N21       -13.8590   -1.2522   54.0814 N.am    1  ZINC000329637067   -0.6200
     22 C22       -15.1358   -0.5861   54.3840 C.3     1  ZINC000329637067    0.0800
     23 C23       -15.0552    0.8620   53.8876 C.3     1  ZINC000329637067    0.0500
     24 O24       -14.6450    0.8678   52.5180 O.3     1  ZINC000329637067   -0.3800
     25 C25       -13.3425    0.3224   52.2948 C.3     1  ZINC000329637067    0.0500
     26 C26       -13.3326   -1.1485   52.7112 C.3     1  ZINC000329637067    0.0700
     27 C27       -12.6037   -2.1377   57.4332 C.3     1  ZINC000329637067    0.1200
     28 H28        -9.3539   -1.4266   58.9989 H       1  ZINC000329637067    0.0900
     29 H29        -8.4788   -2.3260   60.2613 H       1  ZINC000329637067    0.1000
     30 H30       -10.1706   -2.7344   59.8882 H       1  ZINC000329637067    0.0900
     31 H31        -8.2794   -1.2729   62.3061 H       1  ZINC000329637067    0.1600
     32 H32        -8.1505    1.2477   64.1695 H       1  ZINC000329637067    0.1000
     33 H33        -9.5551    0.7356   65.1356 H       1  ZINC000329637067    0.0900
     34 H34        -8.3449   -0.4634   64.6198 H       1  ZINC000329637067    0.0900
     35 H35       -12.3975    0.4822   59.3497 H       1  ZINC000329637067    0.1200
     36 H36       -11.1815   -0.6752   58.7581 H       1  ZINC000329637067    0.1300
     37 H37       -13.5940   -4.4172   58.8251 H       1  ZINC000329637067    0.0800
     38 H38       -14.5197   -3.4221   59.9783 H       1  ZINC000329637067    0.0900
     39 H39       -15.8980   -4.2022   58.0177 H       1  ZINC000329637067    0.0900
     40 H40       -15.8110   -2.4288   58.1501 H       1  ZINC000329637067    0.0700
     41 H41       -14.0552   -4.1553   56.3459 H       1  ZINC000329637067    0.0800
     42 H42       -15.4504   -3.1905   55.8076 H       1  ZINC000329637067    0.0800
     43 H43       -15.9494   -1.1037   53.8759 H       1  ZINC000329637067    0.0800
     44 H44       -15.3090   -0.5961   55.4601 H       1  ZINC000329637067    0.1000
     45 H45       -16.0345    1.3324   53.9762 H       1  ZINC000329637067    0.1100
     46 H46       -14.3303    1.4127   54.4870 H       1  ZINC000329637067    0.0600
     47 H47       -13.0897    0.4046   51.2378 H       1  ZINC000329637067    0.1100
     48 H48       -12.6114    0.8711   52.8885 H       1  ZINC000329637067    0.0600
     49 H49       -12.3131   -1.5326   52.6781 H       1  ZINC000329637067    0.1000
     50 H50       -13.9649   -1.7254   52.0362 H       1  ZINC000329637067    0.0800
     51 H51       -12.0201   -1.2170   57.4273 H       1  ZINC000329637067    0.1000
     52 H52       -11.9649   -2.9794   57.1657 H       1  ZINC000329637067    0.0800
@<TRIPOS>BOND
     1     1     2    1
     2     1    28    1
     3     1    29    1
     4     1    30    1
     5     2     9    1
     6     2     3    2
     7     3     4    1
     8     3    31    1
     9     4     5    1
    10     4     6    2
    11     5    32    1
    12     5    33    1
    13     5    34    1
    14     6     7    1
    15     7     8    2
    16     7     9   am
    17     9    10    1
    18    10    11    1
    19    10    35    1
    20    10    36    1
    21    11    12    2
    22    11    13   am
    23    13    27    1
    24    13    14    1
    25    14    15    1
    26    14    37    1
    27    14    38    1
    28    15    16    1
    29    15    39    1
    30    15    40    1
    31    16    17    1
    32    16    41    1
    33    16    42    1
    34    17    18    1
    35    17    19    1
    36    17    27    1
    37    19    20    2
    38    19    21   am
    39    21    26    1
    40    21    22    1
    41    22    23    1
    42    22    43    1
    43    22    44    1
    44    23    24    1
    45    23    45    1
    46    23    46    1
    47    24    25    1
    48    25    26    1
    49    25    47    1
    50    25    48    1
    51    26    49    1
    52    26    50    1
    53    27    51    1
    54    27    52    1
@<TRIPOS>SUBSTRUCTURE
     1 ZINC000329637067        1 TEMP              0 ****  ****    0 ROOT


##########                                Name:    ZINC001356153960
##########                DOCK_Rotatable_Bonds:                   8
##########                         Heavy_Atoms:                  24
##########                    Molecular_Weight:             334.366
##########                DOCK_Rotatable_Bonds:                   8
##########                       Formal_Charge:           0.0100003
##########                     HBond_Acceptors:                   6
##########                        HBond_Donors:                   1
##########                         Heavy_Atoms:                  24
##########                          Grid_Score:          -29.436012
##########                     Grid_vdw_energy:          -28.932510
##########                      Grid_es_energy:           -0.503502
##########           Internal_energy_repulsive:           21.437330

@<TRIPOS>MOLECULE
ZINC001356153960
 44 46 1 0 0
SMALL
USER_CHARGES


@<TRIPOS>ATOM
      1 O1         -9.8045    0.1449   59.4555 O.2     1  ZINC001356153960   -0.5200
      2 C2        -10.9069    0.3603   59.9147 C.2     1  ZINC001356153960    0.5100
      3 N3        -11.0319    0.9945   61.0975 N.am    1  ZINC001356153960   -0.7000
      4 C4         -9.8372    1.4290   61.8256 C.3     1  ZINC001356153960    0.1300
      5 C5         -9.9239    0.9542   63.2774 C.3     1  ZINC001356153960   -0.0800
      6 H6        -10.9651    0.8872   63.5927 H       1  ZINC001356153960    0.0900
      7 C7         -9.2389   -0.3834   63.4355 C.2     1  ZINC001356153960   -0.1700
      8 C8         -8.4852   -0.4025   64.5010 C.2     1  ZINC001356153960   -0.1600
      9 C9         -8.5419    0.9192   65.2312 C.3     1  ZINC001356153960   -0.1000
     10 C10        -9.1407    1.9119   64.2051 C.3     1  ZINC001356153960   -0.1200
     11 C11       -12.1256   -0.0829   59.1721 C.2     1  ZINC001356153960    0.5100
     12 O12       -12.7813    0.7235   58.5457 O.2     1  ZINC001356153960   -0.5100
     13 N13       -12.4965   -1.3784   59.1980 N.am    1  ZINC001356153960   -0.5500
     14 C14       -11.7050   -2.3520   59.9542 C.3     1  ZINC001356153960    0.1300
     15 C15       -10.5500   -2.8248   59.1097 C.ar    1  ZINC001356153960   -0.1600
     16 C16        -9.2526   -2.6412   59.5486 C.ar    1  ZINC001356153960   -0.0300
     17 C17        -8.1924   -3.0795   58.7776 C.ar    1  ZINC001356153960   -0.1700
     18 C18        -8.4288   -3.6929   57.5591 C.ar    1  ZINC001356153960    0.1400
     19 F19        -7.3923   -4.1166   56.8033 F       1  ZINC001356153960   -0.1300
     20 C20        -9.7281   -3.8723   57.1156 C.ar    1  ZINC001356153960   -0.2000
     21 C21       -10.7890   -3.4382   57.8911 C.ar    1  ZINC001356153960    0.1500
     22 F22       -12.0572   -3.6123   57.4595 F       1  ZINC001356153960   -0.1200
     23 C23       -13.6914   -1.8130   58.4702 C.3     1  ZINC001356153960    0.0700
     24 C24       -15.0485   -1.3359   58.9914 C.3     1  ZINC001356153960   -0.1900
     25 C25       -14.6285   -2.7966   59.1739 C.3     1  ZINC001356153960   -0.1800
     26 H26       -11.9129    1.1631   61.4666 H       1  ZINC001356153960    0.4100
     27 H27        -8.9506    1.0028   61.3562 H       1  ZINC001356153960    0.0800
     28 H28        -9.7732    2.5169   61.8023 H       1  ZINC001356153960    0.0800
     29 H29        -9.3571   -1.2143   62.7559 H       1  ZINC001356153960    0.1200
     30 H30        -7.8980   -1.2512   64.8188 H       1  ZINC001356153960    0.1300
     31 H31        -9.1888    0.8428   66.1052 H       1  ZINC001356153960    0.0800
     32 H32        -7.5408    1.2328   65.5270 H       1  ZINC001356153960    0.0700
     33 H33        -8.3536    2.4303   63.6575 H       1  ZINC001356153960    0.0800
     34 H34        -9.8106    2.6220   64.6899 H       1  ZINC001356153960    0.0800
     35 H35       -11.3239   -1.8840   60.8618 H       1  ZINC001356153960    0.0900
     36 H36       -12.3328   -3.2025   60.2201 H       1  ZINC001356153960    0.1400
     37 H37        -9.0670   -2.1585   60.4967 H       1  ZINC001356153960    0.1600
     38 H38        -7.1790   -2.9391   59.1235 H       1  ZINC001356153960    0.1400
     39 H39        -9.9135   -4.3505   56.1652 H       1  ZINC001356153960    0.1500
     40 H40       -13.5738   -1.9140   57.3913 H       1  ZINC001356153960    0.1400
     41 H41       -15.0523   -0.6988   59.8758 H       1  ZINC001356153960    0.1400
     42 H42       -15.8238   -1.1235   58.2553 H       1  ZINC001356153960    0.0900
     43 H43       -15.1277   -3.5445   58.5578 H       1  ZINC001356153960    0.1000
     44 H44       -14.3560   -3.1204   60.1784 H       1  ZINC001356153960    0.0900
@<TRIPOS>BOND
     1     1     2    2
     2     2     3   am
     3     2    11    1
     4     3     4    1
     5     3    26    1
     6     4     5    1
     7     4    27    1
     8     4    28    1
     9     5     6    1
    10     5    10    1
    11     5     7    1
    12     7     8    2
    13     7    29    1
    14     8     9    1
    15     8    30    1
    16     9    10    1
    17     9    31    1
    18     9    32    1
    19    10    33    1
    20    10    34    1
    21    11    12    2
    22    11    13   am
    23    13    14    1
    24    13    23    1
    25    14    15    1
    26    14    35    1
    27    14    36    1
    28    15    21   ar
    29    15    16   ar
    30    16    17   ar
    31    16    37    1
    32    17    18   ar
    33    17    38    1
    34    18    19    1
    35    18    20   ar
    36    20    21   ar
    37    20    39    1
    38    21    22    1
    39    23    25    1
    40    23    24    1
    41    23    40    1
    42    24    25    1
    43    24    41    1
    44    24    42    1
    45    25    43    1
    46    25    44    1
@<TRIPOS>SUBSTRUCTURE
     1 ZINC001356153960        1 TEMP              0 ****  ****    0 ROOT


##########                                Name:    ZINC000022858610
##########                DOCK_Rotatable_Bonds:                   9
##########                         Heavy_Atoms:                  26
##########                    Molecular_Weight:             369.343
##########                DOCK_Rotatable_Bonds:                   9
##########                       Formal_Charge:          0.00999956
##########                     HBond_Acceptors:                   9
##########                        HBond_Donors:                   2
##########                         Heavy_Atoms:                  26
##########                          Grid_Score:          -29.416054
##########                     Grid_vdw_energy:          -29.065226
##########                      Grid_es_energy:           -0.350828
##########           Internal_energy_repulsive:           16.680111

@<TRIPOS>MOLECULE
ZINC000022858610
 44 45 1 0 0
SMALL
USER_CHARGES


@<TRIPOS>ATOM
      1 C1        -10.2230    5.2689   64.0973 C.3     1  <0>         0.0100
      2 N2         -9.9988    4.0515   64.8880 N.3     1  <0>        -0.5300
      3 C3        -11.2296    3.6346   65.5732 C.3     1  <0>         0.0200
      4 C4         -9.4711    2.9679   64.0482 C.3     1  <0>         0.1500
      5 H5         -8.7453    3.3745   63.3441 H       1  <0>         0.1200
      6 C6        -10.6198    2.3152   63.2766 C.3     1  <0>         0.1300
      7 N7        -10.0779    1.5357   62.1608 N.am    1  <0>        -0.6800
      8 C8        -10.7002    0.4091   61.7609 C.2     1  <0>         0.5100
      9 O9        -11.7102    0.0411   62.3239 O.2     1  <0>        -0.5100
     10 C10       -10.1467   -0.3865   60.6245 C.2     1  <0>         0.5200
     11 O11        -9.2489    0.0681   59.9459 O.2     1  <0>        -0.4900
     12 N12       -10.6441   -1.6093   60.3526 N.am    1  <0>        -0.6500
     13 C13       -10.1262   -2.3535   59.2894 C.ar    1  <0>         0.1900
     14 C14        -8.7953   -2.7512   59.3011 C.ar    1  <0>        -0.1200
     15 C15        -8.2868   -3.4867   58.2485 C.ar    1  <0>        -0.0700
     16 C16        -9.1009   -3.8274   57.1840 C.ar    1  <0>        -0.1300
     17 C17       -10.4264   -3.4327   57.1689 C.ar    1  <0>        -0.0500
     18 C18       -10.9430   -2.7025   58.2208 C.ar    1  <0>        -0.2100
     19 C19       -12.3873   -2.2729   58.2035 C.3     1  <0>         0.5100
     20 F20       -13.0743   -2.9050   59.2454 F       1  <0>        -0.1700
     21 F21       -12.4633   -0.8858   58.3688 F       1  <0>        -0.1800
     22 F22       -12.9652   -2.6292   56.9802 F       1  <0>        -0.1700
     23 C23        -8.8020    1.9369   64.9203 C.2     1  <0>        -0.0500
     24 C24        -7.8436    2.1803   65.8322 C.2     1  <0>        -0.1900
     25 C25        -7.5062    0.9367   66.4138 C.2     1  <0>        -0.2100
     26 C26        -8.2786    0.0076   65.8225 C.2     1  <0>        -0.0400
     27 O27        -9.0656    0.6199   64.9228 O.3     1  <0>        -0.1700
     28 H28       -10.4319    6.1036   64.7665 H       1  <0>         0.0700
     29 H29        -9.3323    5.4892   63.5089 H       1  <0>         0.0700
     30 H30       -11.0712    5.1175   63.4296 H       1  <0>         0.0500
     31 H31       -12.0062    3.4339   64.8351 H       1  <0>         0.0300
     32 H32       -11.0355    2.7311   66.1512 H       1  <0>         0.0700
     33 H33       -11.5604    4.4295   66.2415 H       1  <0>         0.0800
     34 H34       -11.1772    1.6567   63.9429 H       1  <0>         0.0900
     35 H35       -11.2841    3.0885   62.8908 H       1  <0>         0.0800
     36 H36        -9.2712    1.8305   61.7099 H       1  <0>         0.4200
     37 H37       -11.3615   -1.9725   60.8949 H       1  <0>         0.4300
     38 H38        -8.1589   -2.4852   60.1321 H       1  <0>         0.1500
     39 H39        -7.2520   -3.7960   58.2568 H       1  <0>         0.1400
     40 H40        -8.7006   -4.4026   56.3623 H       1  <0>         0.1400
     41 H41       -11.0592   -3.6998   56.3355 H       1  <0>         0.1500
     42 H42        -7.4139    3.1414   66.0733 H       1  <0>         0.1500
     43 H43        -6.7694    0.7654   67.1846 H       1  <0>         0.1500
     44 H44        -8.2702   -1.0507   66.0377 H       1  <0>         0.2000
@<TRIPOS>BOND
     1     1     2    1
     2     1    28    1
     3     1    29    1
     4     1    30    1
     5     2     3    1
     6     2     4    1
     7     3    31    1
     8     3    32    1
     9     3    33    1
    10     4     5    1
    11     4     6    1
    12     4    23    1
    13     6     7    1
    14     6    34    1
    15     6    35    1
    16     7     8   am
    17     7    36    1
    18     8     9    2
    19     8    10    1
    20    10    11    2
    21    10    12   am
    22    12    13    1
    23    12    37    1
    24    13    18   ar
    25    13    14   ar
    26    14    15   ar
    27    14    38    1
    28    15    16   ar
    29    15    39    1
    30    16    17   ar
    31    16    40    1
    32    17    18   ar
    33    17    41    1
    34    18    19    1
    35    19    20    1
    36    19    21    1
    37    19    22    1
    38    23    27    1
    39    23    24    2
    40    24    25    1
    41    24    42    1
    42    25    26    2
    43    25    43    1
    44    26    27    1
    45    26    44    1
@<TRIPOS>SUBSTRUCTURE
     1 <0>         1 TEMP              0 ****  ****    0 ROOT


##########                                Name:    ZINC000470948647
##########                DOCK_Rotatable_Bonds:                   6
##########                         Heavy_Atoms:                  29
##########                    Molecular_Weight:             412.556
##########                DOCK_Rotatable_Bonds:                   6
##########                       Formal_Charge:           0.0100001
##########                     HBond_Acceptors:                   7
##########                        HBond_Donors:                   1
##########                         Heavy_Atoms:                  29
##########                          Grid_Score:          -29.415344
##########                     Grid_vdw_energy:          -26.086033
##########                      Grid_es_energy:           -3.329312
##########           Internal_energy_repulsive:           91.678421

@<TRIPOS>MOLECULE
ZINC000470948647
 57 60 1 0 0
SMALL
USER_CHARGES


@<TRIPOS>ATOM
      1 C1         -8.5959    0.4980   65.0534 C.3     1  ZINC000470948647   -0.1100
      2 C2         -9.4379    0.3145   63.8172 C.ar    1  ZINC000470948647   -0.1000
      3 C3        -10.6818    0.9124   63.7347 C.ar    1  ZINC000470948647   -0.1100
      4 C4        -11.4560    0.7461   62.6029 C.ar    1  ZINC000470948647   -0.1100
      5 C5        -10.9837   -0.0222   61.5472 C.ar    1  ZINC000470948647    0.1400
      6 N6        -11.7653   -0.1922   60.3991 N.am    1  ZINC000470948647   -0.6700
      7 C7        -12.9928   -0.7404   60.4947 C.2     1  ZINC000470948647    0.5100
      8 O8        -13.4200   -1.0863   61.5759 O.2     1  ZINC000470948647   -0.4800
      9 C9        -13.8346   -0.9236   59.2582 C.3     1  ZINC000470948647    0.1200
     10 H10       -13.5600   -0.1587   58.5319 H       1  ZINC000470948647    0.1200
     11 C11       -13.5336   -2.3138   58.6536 C.3     1  ZINC000470948647   -0.0700
     12 S12       -14.9301   -3.3102   59.3246 S.3     1  ZINC000470948647   -0.2500
     13 C13       -16.1086   -1.8963   59.3164 C.3     1  ZINC000470948647    0.1600
     14 N14       -15.2343   -0.7488   59.6151 N.am    1  ZINC000470948647   -0.6000
     15 C15       -15.6972    0.3854   60.1770 C.2     1  ZINC000470948647    0.6300
     16 O16       -16.8757    0.4879   60.4574 O.2     1  ZINC000470948647   -0.5100
     17 C17       -14.7727    1.5040   60.4524 C.2     1  ZINC000470948647   -0.0100
     18 N18       -13.4797    1.5338   60.1977 N.2     1  ZINC000470948647   -0.2700
     19 N19       -12.9839    2.6605   60.5650 N.pl3   1  ZINC000470948647   -0.2700
     20 C20       -11.5749    3.0392   60.4318 C.3     1  ZINC000470948647    0.1500
     21 C21       -11.3544    3.7159   59.0774 C.3     1  ZINC000470948647   -0.1300
     22 C22        -9.8830    4.1114   58.9384 C.3     1  ZINC000470948647   -0.1200
     23 C23        -9.5073    5.0814   60.0604 C.3     1  ZINC000470948647   -0.1300
     24 C24        -9.7278    4.4046   61.4148 C.3     1  ZINC000470948647   -0.1200
     25 C25       -11.1992    4.0092   61.5538 C.3     1  ZINC000470948647   -0.1300
     26 C26       -13.9482    3.4458   61.0913 C.2     1  ZINC000470948647   -0.0100
     27 C27       -15.1077    2.7497   61.0339 C.2     1  ZINC000470948647   -0.1700
     28 C28        -9.7335   -0.6212   61.6329 C.ar    1  ZINC000470948647   -0.1100
     29 C29        -9.2168   -1.4554   60.4892 C.3     1  ZINC000470948647   -0.1100
     30 C30        -8.9623   -0.4470   62.7652 C.ar    1  ZINC000470948647   -0.1000
     31 H31        -7.9671    1.3808   64.9370 H       1  ZINC000470948647    0.0700
     32 H32        -9.2452    0.6261   65.9195 H       1  ZINC000470948647    0.0700
     33 H33        -7.9664   -0.3800   65.1979 H       1  ZINC000470948647    0.0700
     34 H34       -11.0486    1.5099   64.5561 H       1  ZINC000470948647    0.1200
     35 H35       -12.4279    1.2129   62.5394 H       1  ZINC000470948647    0.1400
     36 H36       -11.4237    0.0845   59.5344 H       1  ZINC000470948647    0.4100
     37 H37       -13.5632   -2.2818   57.5644 H       1  ZINC000470948647    0.1200
     38 H38       -12.5754   -2.6951   59.0064 H       1  ZINC000470948647    0.1200
     39 H39       -16.5729   -1.7857   58.3364 H       1  ZINC000470948647    0.1000
     40 H40       -16.8646   -2.0186   60.0921 H       1  ZINC000470948647    0.1400
     41 H41       -10.9512    2.1477   60.4983 H       1  ZINC000470948647    0.1100
     42 H42       -11.6221    3.0249   58.2781 H       1  ZINC000470948647    0.0800
     43 H43       -11.9781    4.6075   59.0110 H       1  ZINC000470948647    0.0800
     44 H44        -9.2593    3.2200   59.0049 H       1  ZINC000470948647    0.0700
     45 H45        -9.7260    4.5936   57.9735 H       1  ZINC000470948647    0.0800
     46 H46        -8.4591    5.3631   59.9614 H       1  ZINC000470948647    0.0700
     47 H47       -10.1310    5.9729   59.9940 H       1  ZINC000470948647    0.0700
     48 H48        -9.1042    3.5132   61.4812 H       1  ZINC000470948647    0.0700
     49 H49        -9.4602    5.0957   62.2141 H       1  ZINC000470948647    0.0700
     50 H50       -11.8230    4.9007   61.4873 H       1  ZINC000470948647    0.0700
     51 H51       -11.3563    3.5270   62.5187 H       1  ZINC000470948647    0.0700
     52 H52       -13.8191    4.4447   61.4809 H       1  ZINC000470948647    0.1800
     53 H53       -16.0820    3.0741   61.3682 H       1  ZINC000470948647    0.1600
     54 H54        -8.6630   -0.8205   59.7976 H       1  ZINC000470948647    0.0700
     55 H55        -8.5578   -2.2330   60.8754 H       1  ZINC000470948647    0.0700
     56 H56       -10.0556   -1.9160   59.9674 H       1  ZINC000470948647    0.0600
     57 H57        -7.9900   -0.9123   62.8323 H       1  ZINC000470948647    0.1300
@<TRIPOS>BOND
     1     1     2    1
     2     1    31    1
     3     1    32    1
     4     1    33    1
     5     2    30   ar
     6     2     3   ar
     7     3     4   ar
     8     3    34    1
     9     4     5   ar
    10     4    35    1
    11     5     6    1
    12     5    28   ar
    13     6     7   am
    14     6    36    1
    15     7     8    2
    16     7     9    1
    17     9    10    1
    18     9    14    1
    19     9    11    1
    20    11    12    1
    21    11    37    1
    22    11    38    1
    23    12    13    1
    24    13    14    1
    25    13    39    1
    26    13    40    1
    27    14    15   am
    28    15    16    2
    29    15    17    1
    30    17    27    1
    31    17    18    2
    32    18    19    1
    33    19    20    1
    34    19    26    1
    35    20    25    1
    36    20    21    1
    37    20    41    1
    38    21    22    1
    39    21    42    1
    40    21    43    1
    41    22    23    1
    42    22    44    1
    43    22    45    1
    44    23    24    1
    45    23    46    1
    46    23    47    1
    47    24    25    1
    48    24    48    1
    49    24    49    1
    50    25    50    1
    51    25    51    1
    52    26    27    2
    53    26    52    1
    54    27    53    1
    55    28    29    1
    56    28    30   ar
    57    29    54    1
    58    29    55    1
    59    29    56    1
    60    30    57    1
@<TRIPOS>SUBSTRUCTURE
     1 ZINC000470948647        1 TEMP              0 ****  ****    0 ROOT


##########                                Name:    ZINC000840464592
##########                DOCK_Rotatable_Bonds:                  10
##########                         Heavy_Atoms:                  26
##########                    Molecular_Weight:             360.497
##########                DOCK_Rotatable_Bonds:                  10
##########                       Formal_Charge:          -0.0399996
##########                     HBond_Acceptors:                   5
##########                        HBond_Donors:                   1
##########                         Heavy_Atoms:                  26
##########                          Grid_Score:          -29.407608
##########                     Grid_vdw_energy:          -27.394867
##########                      Grid_es_energy:           -2.012740
##########           Internal_energy_repulsive:           93.836502

@<TRIPOS>MOLECULE
ZINC000840464592
 58 59 1 0 0
SMALL
USER_CHARGES


@<TRIPOS>ATOM
      1 C1         -9.9032    3.4923   64.4683 C.3     1  ZINC000840464592   -0.1500
      2 C2         -9.9149    1.9675   64.5943 C.3     1  ZINC000840464592   -0.1300
      3 C3        -10.8270    1.3739   63.5190 C.3     1  ZINC000840464592   -0.1200
      4 C4        -10.3069    1.7674   62.1349 C.3     1  ZINC000840464592   -0.1200
      5 C5        -11.2204    1.1757   61.0596 C.3     1  ZINC000840464592   -0.1200
      6 C6        -10.6819    1.5418   59.6751 C.3     1  ZINC000840464592    0.0600
      7 O7        -11.4261    0.8438   58.6746 O.3     1  ZINC000840464592   -0.3600
      8 C8        -12.8254    1.1334   58.6832 C.3     1  ZINC000840464592    0.0800
      9 H9        -13.2658    0.7707   59.6120 H       1  ZINC000840464592    0.0800
     10 C10       -13.0341    2.6453   58.5761 C.3     1  ZINC000840464592   -0.1800
     11 C11       -13.4869    0.4509   57.5137 C.2     1  ZINC000840464592    0.5200
     12 O12       -13.8158    1.0969   56.5414 O.2     1  ZINC000840464592   -0.5000
     13 N13       -13.7129   -0.8773   57.5481 N.am    1  ZINC000840464592   -0.6000
     14 C14       -14.3543   -1.5344   56.4122 C.3     1  ZINC000840464592    0.0900
     15 C15       -15.6945   -2.1464   56.8041 C.3     1  ZINC000840464592   -0.1600
     16 C16       -15.4888   -3.2363   57.8585 C.3     1  ZINC000840464592    0.0800
     17 N17       -15.5311   -2.6269   59.1922 N.am    1  ZINC000840464592   -0.7200
     18 C18       -14.5236   -1.8465   59.6141 C.2     1  ZINC000840464592    0.5100
     19 O19       -14.5823   -1.3011   60.6958 O.2     1  ZINC000840464592   -0.5200
     20 C20       -13.3079   -1.6557   58.7234 C.3     1  ZINC000840464592    0.1400
     21 H21       -12.5342   -1.1177   59.2711 H       1  ZINC000840464592    0.1300
     22 C22       -12.7725   -3.0207   58.2865 C.3     1  ZINC000840464592   -0.1000
     23 C23       -11.2866   -3.0792   58.5309 C.ar    1  ZINC000840464592   -0.0900
     24 C24       -10.4400   -3.5335   57.5370 C.ar    1  ZINC000840464592   -0.1100
     25 C25        -9.0771   -3.5871   57.7611 C.ar    1  ZINC000840464592   -0.1200
     26 C26        -8.5606   -3.1860   58.9790 C.ar    1  ZINC000840464592   -0.1200
     27 C27        -9.4071   -2.7309   59.9725 C.ar    1  ZINC000840464592   -0.1200
     28 C28       -10.7696   -2.6733   59.7469 C.ar    1  ZINC000840464592   -0.1100
     29 H29       -10.9153    3.8753   64.5985 H       1  ZINC000840464592    0.0500
     30 H30        -9.2533    3.9151   65.2345 H       1  ZINC000840464592    0.0500
     31 H31        -9.5326    3.7725   63.4824 H       1  ZINC000840464592    0.0500
     32 H32        -8.9027    1.5844   64.4642 H       1  ZINC000840464592    0.0600
     33 H33       -10.2854    1.6872   65.5803 H       1  ZINC000840464592    0.0600
     34 H34       -10.8354    0.2876   63.6086 H       1  ZINC000840464592    0.0600
     35 H35       -11.8391    1.7571   63.6491 H       1  ZINC000840464592    0.0600
     36 H36       -10.2971    2.8537   62.0458 H       1  ZINC000840464592    0.0600
     37 H37        -9.2954    1.3830   62.0041 H       1  ZINC000840464592    0.0600
     38 H38       -11.2483    0.0909   61.1633 H       1  ZINC000840464592    0.0700
     39 H39       -12.2266    1.5780   61.1761 H       1  ZINC000840464592    0.0700
     40 H40       -10.7818    2.6159   59.5188 H       1  ZINC000840464592    0.0500
     41 H41        -9.6308    1.2611   59.6080 H       1  ZINC000840464592    0.0500
     42 H42       -14.1004    2.8612   58.5109 H       1  ZINC000840464592    0.0800
     43 H43       -12.6178    3.1328   59.4577 H       1  ZINC000840464592    0.0700
     44 H44       -12.5325    3.0188   57.6834 H       1  ZINC000840464592    0.0800
     45 H45       -14.5150   -0.8019   55.6212 H       1  ZINC000840464592    0.1000
     46 H46       -13.6988   -2.3214   56.0393 H       1  ZINC000840464592    0.0800
     47 H47       -16.3418   -1.3689   57.2097 H       1  ZINC000840464592    0.0800
     48 H48       -16.1647   -2.5813   55.9221 H       1  ZINC000840464592    0.1000
     49 H49       -16.2804   -3.9807   57.7725 H       1  ZINC000840464592    0.0900
     50 H50       -14.5204   -3.7129   57.7060 H       1  ZINC000840464592    0.1000
     51 H51       -16.2915   -2.7884   59.7724 H       1  ZINC000840464592    0.4000
     52 H52       -13.2662   -3.8052   58.8601 H       1  ZINC000840464592    0.0900
     53 H53       -12.9722   -3.1665   57.2249 H       1  ZINC000840464592    0.1000
     54 H54       -10.8435   -3.8469   56.5854 H       1  ZINC000840464592    0.1200
     55 H55        -8.4157   -3.9427   56.9848 H       1  ZINC000840464592    0.1200
     56 H56        -7.4957   -3.2286   59.1544 H       1  ZINC000840464592    0.1200
     57 H57        -9.0035   -2.4179   60.9242 H       1  ZINC000840464592    0.1200
     58 H58       -11.4309   -2.3177   60.5232 H       1  ZINC000840464592    0.1200
@<TRIPOS>BOND
     1     1     2    1
     2     1    29    1
     3     1    30    1
     4     1    31    1
     5     2     3    1
     6     2    32    1
     7     2    33    1
     8     3     4    1
     9     3    34    1
    10     3    35    1
    11     4     5    1
    12     4    36    1
    13     4    37    1
    14     5     6    1
    15     5    38    1
    16     5    39    1
    17     6     7    1
    18     6    40    1
    19     6    41    1
    20     7     8    1
    21     8     9    1
    22     8    10    1
    23     8    11    1
    24    10    42    1
    25    10    43    1
    26    10    44    1
    27    11    12    2
    28    11    13   am
    29    13    20    1
    30    13    14    1
    31    14    15    1
    32    14    45    1
    33    14    46    1
    34    15    16    1
    35    15    47    1
    36    15    48    1
    37    16    17    1
    38    16    49    1
    39    16    50    1
    40    17    18   am
    41    17    51    1
    42    18    19    2
    43    18    20    1
    44    20    21    1
    45    20    22    1
    46    22    23    1
    47    22    52    1
    48    22    53    1
    49    23    28   ar
    50    23    24   ar
    51    24    25   ar
    52    24    54    1
    53    25    26   ar
    54    25    55    1
    55    26    27   ar
    56    26    56    1
    57    27    28   ar
    58    27    57    1
    59    28    58    1
@<TRIPOS>SUBSTRUCTURE
     1 ZINC000840464592        1 TEMP              0 ****  ****    0 ROOT


##########                                Name:    ZINC000432058199
##########                DOCK_Rotatable_Bonds:                   5
##########                         Heavy_Atoms:                  30
##########                    Molecular_Weight:             406.441
##########                DOCK_Rotatable_Bonds:                   5
##########                       Formal_Charge:        -4.02331e-07
##########                     HBond_Acceptors:                   8
##########                        HBond_Donors:                   1
##########                         Heavy_Atoms:                  30
##########                          Grid_Score:          -29.398170
##########                     Grid_vdw_energy:          -27.915134
##########                      Grid_es_energy:           -1.483036
##########           Internal_energy_repulsive:           19.734400

@<TRIPOS>MOLECULE
ZINC000432058199
 52 55 1 0 0
SMALL
USER_CHARGES


@<TRIPOS>ATOM
      1 C1         -6.3915   -4.6353   55.1804 C.3     1  ZINC000432058199    0.0300
      2 O2         -7.7148   -4.2491   55.5570 O.3     1  ZINC000432058199   -0.3100
      3 C3         -7.9003   -3.8577   56.8451 C.ar    1  ZINC000432058199    0.1300
      4 C4         -6.8299   -3.8488   57.7286 C.ar    1  ZINC000432058199   -0.1900
      5 C5         -7.0141   -3.4512   59.0398 C.ar    1  ZINC000432058199   -0.0800
      6 C6         -8.2637   -3.0611   59.4776 C.ar    1  ZINC000432058199   -0.1100
      7 C7         -9.3436   -3.0667   58.5966 C.ar    1  ZINC000432058199    0.0100
      8 C8        -10.6882   -2.6471   59.0648 C.2     1  ZINC000432058199    0.2100
      9 N9        -10.9740   -2.1069   60.2207 N.2     1  ZINC000432058199   -0.3700
     10 O10       -12.1637   -1.8818   60.2929 O.3     1  ZINC000432058199    0.1200
     11 C11       -12.7710   -2.2641   59.1652 C.2     1  ZINC000432058199    0.1600
     12 C12       -14.2425   -2.1535   58.8593 C.3     1  ZINC000432058199    0.2500
     13 H13       -14.8084   -2.1556   59.7908 H       1  ZINC000432058199    0.1500
     14 C14       -14.6749   -3.3412   57.9971 C.3     1  ZINC000432058199   -0.1700
     15 N15       -14.4984   -0.9057   58.1353 N.am    1  ZINC000432058199   -0.5800
     16 C16       -15.1016    0.1627   58.6689 C.2     1  ZINC000432058199    0.7000
     17 O17       -15.5026    0.2097   59.8152 O.2     1  ZINC000432058199   -0.5100
     18 N18       -15.2144    1.1789   57.7949 N.am    1  ZINC000432058199   -0.7200
     19 C19       -14.6101    0.7184   56.5328 C.3     1  ZINC000432058199    0.1400
     20 H20       -15.3506    0.7116   55.7330 H       1  ZINC000432058199    0.1400
     21 C21       -13.4364    1.5866   56.1590 C.ar    1  ZINC000432058199   -0.1000
     22 C22       -12.5691    2.0352   57.1376 C.ar    1  ZINC000432058199   -0.1000
     23 C23       -11.4925    2.8316   56.7947 C.ar    1  ZINC000432058199   -0.0800
     24 C24       -10.5474    3.3211   57.8615 C.3     1  ZINC000432058199   -0.1200
     25 C25       -11.2826    3.1787   55.4733 C.ar    1  ZINC000432058199   -0.1100
     26 C26       -12.1497    2.7297   54.4946 C.ar    1  ZINC000432058199   -0.0800
     27 C27       -11.9211    3.1085   53.0540 C.3     1  ZINC000432058199   -0.1200
     28 C28       -13.2238    1.9299   54.8369 C.ar    1  ZINC000432058199   -0.1000
     29 C29       -14.1501   -0.6904   56.8513 C.2     1  ZINC000432058199    0.5300
     30 O30       -13.5904   -1.4645   56.1048 O.2     1  ZINC000432058199   -0.4500
     31 N31       -11.8460   -2.7467   58.3734 N.2     1  ZINC000432058199   -0.4500
     32 C32        -9.1566   -3.4621   57.2748 C.ar    1  ZINC000432058199   -0.1200
     33 H33        -6.3825   -4.9242   54.1294 H       1  ZINC000432058199    0.1000
     34 H34        -5.7113   -3.7972   55.3326 H       1  ZINC000432058199    0.0600
     35 H35        -6.0713   -5.4789   55.7919 H       1  ZINC000432058199    0.0600
     36 H36        -5.8504   -4.1536   57.3908 H       1  ZINC000432058199    0.1400
     37 H37        -6.1781   -3.4464   59.7236 H       1  ZINC000432058199    0.1400
     38 H38        -8.4046   -2.7517   60.5027 H       1  ZINC000432058199    0.1400
     39 H39       -14.1090   -3.3390   57.0655 H       1  ZINC000432058199    0.0900
     40 H40       -14.4845   -4.2695   58.5357 H       1  ZINC000432058199    0.0900
     41 H41       -15.7392   -3.2611   57.7759 H       1  ZINC000432058199    0.0900
     42 H42       -15.6159    2.0459   57.9626 H       1  ZINC000432058199    0.4500
     43 H43       -12.7329    1.7637   58.1700 H       1  ZINC000432058199    0.1200
     44 H44        -9.7399    2.6002   57.9901 H       1  ZINC000432058199    0.0700
     45 H45       -10.1312    4.2837   57.5645 H       1  ZINC000432058199    0.0700
     46 H46       -11.0873    3.4333   58.8017 H       1  ZINC000432058199    0.0700
     47 H47       -10.4416    3.8009   55.2054 H       1  ZINC000432058199    0.1300
     48 H48       -11.2865    2.3610   52.5781 H       1  ZINC000432058199    0.0700
     49 H49       -12.8783    3.1564   52.5347 H       1  ZINC000432058199    0.0700
     50 H50       -11.4333    4.0822   53.0073 H       1  ZINC000432058199    0.0700
     51 H51       -13.9012    1.5791   54.0724 H       1  ZINC000432058199    0.1300
     52 H52        -9.9904   -3.4681   56.5884 H       1  ZINC000432058199    0.1400
@<TRIPOS>BOND
     1     1     2    1
     2     1    33    1
     3     1    34    1
     4     1    35    1
     5     2     3    1
     6     3    32   ar
     7     3     4   ar
     8     4     5   ar
     9     4    36    1
    10     5     6   ar
    11     5    37    1
    12     6     7   ar
    13     6    38    1
    14     7     8    1
    15     7    32   ar
    16     8    31    1
    17     8     9    2
    18     9    10    1
    19    10    11    1
    20    11    12    1
    21    11    31    2
    22    12    13    1
    23    12    14    1
    24    12    15    1
    25    14    39    1
    26    14    40    1
    27    14    41    1
    28    15    29   am
    29    15    16   am
    30    16    17    2
    31    16    18   am
    32    18    19    1
    33    18    42    1
    34    19    20    1
    35    19    21    1
    36    19    29    1
    37    21    28   ar
    38    21    22   ar
    39    22    23   ar
    40    22    43    1
    41    23    24    1
    42    23    25   ar
    43    24    44    1
    44    24    45    1
    45    24    46    1
    46    25    26   ar
    47    25    47    1
    48    26    27    1
    49    26    28   ar
    50    27    48    1
    51    27    49    1
    52    27    50    1
    53    28    51    1
    54    29    30    2
    55    32    52    1
@<TRIPOS>SUBSTRUCTURE
     1 ZINC000432058199        1 TEMP              0 ****  ****    0 ROOT


##########                                Name:    ZINC001707162141
##########                DOCK_Rotatable_Bonds:                   9
##########                         Heavy_Atoms:                  25
##########                    Molecular_Weight:               344.5
##########                DOCK_Rotatable_Bonds:                   9
##########                       Formal_Charge:          -0.0299999
##########                     HBond_Acceptors:                   5
##########                        HBond_Donors:                   1
##########                         Heavy_Atoms:                  25
##########                          Grid_Score:          -29.394804
##########                     Grid_vdw_energy:          -29.484926
##########                      Grid_es_energy:            0.090123
##########           Internal_energy_repulsive:           81.761635

@<TRIPOS>MOLECULE
ZINC001707162141
 57 59 1 0 0
SMALL
USER_CHARGES


@<TRIPOS>ATOM
      1 C1        -12.6356   -2.4337   59.7282 C.3     1  ZINC001707162141   -0.1800
      2 C2        -11.3921   -1.5987   59.4161 C.3     1  ZINC001707162141    0.1700
      3 H3        -11.6346   -0.8556   58.6565 H       1  ZINC001707162141    0.1000
      4 N4        -10.9385   -0.9203   60.6376 N.3     1  ZINC001707162141   -0.6400
      5 C5        -10.3397    0.3840   60.3239 C.3     1  ZINC001707162141    0.0700
      6 C6         -9.9431    1.0886   61.6227 C.3     1  ZINC001707162141    0.1500
      7 H7         -9.1454    0.5302   62.1126 H       1  ZINC001707162141    0.0700
      8 C8        -11.1582    1.1758   62.5515 C.3     1  ZINC001707162141   -0.1200
      9 C9        -10.7929    2.0019   63.7868 C.3     1  ZINC001707162141   -0.0900
     10 H10        -9.9504    1.5366   64.2985 H       1  ZINC001707162141    0.0700
     11 C11       -11.9937    2.0621   64.7331 C.3     1  ZINC001707162141   -0.1500
     12 C12       -10.4094    3.4203   63.3589 C.3     1  ZINC001707162141   -0.1300
     13 C13        -9.1857    3.3586   62.4393 C.3     1  ZINC001707162141    0.1100
     14 N14        -9.4787    2.4499   61.3226 N.am    1  ZINC001707162141   -0.6100
     15 C15        -9.3248    2.8574   60.0472 C.2     1  ZINC001707162141    0.5100
     16 O16        -9.5699    2.0978   59.1341 O.2     1  ZINC001707162141   -0.4800
     17 C17        -8.8482    4.2570   59.7556 C.3     1  ZINC001707162141   -0.1400
     18 C18        -8.6539    4.4257   58.2474 C.3     1  ZINC001707162141   -0.0900
     19 C19        -7.3685    3.7165   57.8163 C.3     1  ZINC001707162141   -0.0900
     20 C20        -7.1111    3.9849   56.3322 C.3     1  ZINC001707162141   -0.1500
     21 C21        -5.7265    4.5029   55.9377 C.3     1  ZINC001707162141   -0.1800
     22 C22        -6.9344    5.4413   55.8979 C.3     1  ZINC001707162141   -0.1800
     23 C23       -10.2971   -2.4998   58.9058 C.ar    1  ZINC001707162141    0.3500
     24 N24        -9.2372   -2.7116   59.6599 N.ar    1  ZINC001707162141   -0.5000
     25 C25        -8.2585   -3.5010   59.2474 C.ar    1  ZINC001707162141    0.1500
     26 C26        -8.3543   -4.0983   58.0005 C.ar    1  ZINC001707162141   -0.2400
     27 C27        -9.4815   -3.8470   57.2340 C.ar    1  ZINC001707162141    0.1500
     28 N28       -10.4224   -3.0505   57.7151 N.ar    1  ZINC001707162141   -0.5200
     29 H29       -13.4275   -1.7820   60.0973 H       1  ZINC001707162141    0.0600
     30 H30       -12.9720   -2.9371   58.8219 H       1  ZINC001707162141    0.0600
     31 H31       -12.3929   -3.1768   60.4879 H       1  ZINC001707162141    0.0600
     32 H32       -11.6945   -0.8215   61.2984 H       1  ZINC001707162141    0.3300
     33 H33        -9.4545    0.2379   59.7048 H       1  ZINC001707162141    0.1000
     34 H34       -11.0631    0.9957   59.7850 H       1  ZINC001707162141    0.0200
     35 H35       -11.9846    1.6538   62.0254 H       1  ZINC001707162141    0.0700
     36 H36       -11.4538    0.1727   62.8589 H       1  ZINC001707162141    0.0700
     37 H37       -12.8362    2.5279   64.2218 H       1  ZINC001707162141    0.0500
     38 H38       -12.2670    1.0520   65.0380 H       1  ZINC001707162141    0.0600
     39 H39       -11.7333    2.6495   65.6135 H       1  ZINC001707162141    0.0600
     40 H40       -10.1720    4.0148   64.2411 H       1  ZINC001707162141    0.0700
     41 H41       -11.2428    3.8772   62.8253 H       1  ZINC001707162141    0.0700
     42 H42        -8.3272    2.9861   62.9981 H       1  ZINC001707162141    0.0600
     43 H43        -8.9685    4.3544   62.0528 H       1  ZINC001707162141    0.0800
     44 H44        -9.5890    4.9741   60.1089 H       1  ZINC001707162141    0.0800
     45 H45        -7.9009    4.4319   60.2658 H       1  ZINC001707162141    0.0800
     46 H46        -9.5032    3.9906   57.7206 H       1  ZINC001707162141    0.0700
     47 H47        -8.5818    5.4864   58.0068 H       1  ZINC001707162141    0.0700
     48 H48        -6.5313    4.0927   58.4041 H       1  ZINC001707162141    0.0600
     49 H49        -7.4735    2.6437   57.9787 H       1  ZINC001707162141    0.0600
     50 H50        -7.6129    3.3103   55.6385 H       1  ZINC001707162141    0.1000
     51 H51        -4.9991    4.6524   56.7355 H       1  ZINC001707162141    0.0900
     52 H52        -5.3172    4.1689   54.9842 H       1  ZINC001707162141    0.0900
     53 H53        -7.3195    5.7247   54.9185 H       1  ZINC001707162141    0.0900
     54 H54        -7.0014    6.2082   56.6696 H       1  ZINC001707162141    0.0900
     55 H55        -7.3945   -3.6737   59.8719 H       1  ZINC001707162141    0.1600
     56 H56        -7.5698   -4.7442   57.6349 H       1  ZINC001707162141    0.1400
     57 H57        -9.5902   -4.2950   56.2573 H       1  ZINC001707162141    0.1600
@<TRIPOS>BOND
     1     1     2    1
     2     1    29    1
     3     1    30    1
     4     1    31    1
     5     2     3    1
     6     2     4    1
     7     2    23    1
     8     4     5    1
     9     4    32    1
    10     5     6    1
    11     5    33    1
    12     5    34    1
    13     6     7    1
    14     6    14    1
    15     6     8    1
    16     8     9    1
    17     8    35    1
    18     8    36    1
    19     9    10    1
    20     9    11    1
    21     9    12    1
    22    11    37    1
    23    11    38    1
    24    11    39    1
    25    12    13    1
    26    12    40    1
    27    12    41    1
    28    13    14    1
    29    13    42    1
    30    13    43    1
    31    14    15   am
    32    15    16    2
    33    15    17    1
    34    17    18    1
    35    17    44    1
    36    17    45    1
    37    18    19    1
    38    18    46    1
    39    18    47    1
    40    19    20    1
    41    19    48    1
    42    19    49    1
    43    20    22    1
    44    20    21    1
    45    20    50    1
    46    21    22    1
    47    21    51    1
    48    21    52    1
    49    22    53    1
    50    22    54    1
    51    23    28   ar
    52    23    24   ar
    53    24    25   ar
    54    25    26   ar
    55    25    55    1
    56    26    27   ar
    57    26    56    1
    58    27    28   ar
    59    27    57    1
@<TRIPOS>SUBSTRUCTURE
     1 ZINC001707162141        1 TEMP              0 ****  ****    0 ROOT


##########                                Name:    ZINC000817655807
##########                DOCK_Rotatable_Bonds:                   3
##########                         Heavy_Atoms:                  24
##########                    Molecular_Weight:             352.774
##########                DOCK_Rotatable_Bonds:                   3
##########                       Formal_Charge:         3.35276e-07
##########                     HBond_Acceptors:                   8
##########                        HBond_Donors:                   0
##########                         Heavy_Atoms:                  24
##########                          Grid_Score:          -29.383329
##########                     Grid_vdw_energy:          -26.906319
##########                      Grid_es_energy:           -2.477011
##########           Internal_energy_repulsive:            3.933126

@<TRIPOS>MOLECULE
ZINC000817655807
 41 44 1 0 0
SMALL
USER_CHARGES


@<TRIPOS>ATOM
      1 C1         -7.3732   -0.0816   65.9601 C.3     1  ZINC000817655807    0.1100
      2 N2         -8.1364    1.1098   65.5799 N.am    1  ZINC000817655807   -0.6400
      3 C3         -9.4026    1.1125   64.8254 C.3     1  ZINC000817655807    0.1000
      4 C4         -9.7440    2.6013   64.7164 C.3     1  ZINC000817655807    0.0500
      5 C5        -10.0866    3.1040   63.3139 C.3     1  ZINC000817655807    0.1200
      6 N6        -11.4954    2.8650   63.6909 N.am    1  ZINC000817655807   -0.6500
      7 C7        -12.6289    2.6281   63.0014 C.2     1  ZINC000817655807    0.5500
      8 O8        -13.6755    2.4660   63.5923 O.2     1  ZINC000817655807   -0.5100
      9 C9        -12.5958    2.5645   61.4960 C.3     1  ZINC000817655807   -0.0900
     10 C10       -12.3083    1.1512   61.0591 C.ar    1  ZINC000817655807   -0.0600
     11 C11       -13.3420    0.2412   60.9433 C.ar    1  ZINC000817655807   -0.0900
     12 C12       -13.0815   -1.0576   60.5446 C.ar    1  ZINC000817655807   -0.0300
     13 Cl13      -14.3823   -2.1982   60.4008 Cl      1  ZINC000817655807   -0.0500
     14 C14       -11.7813   -1.4492   60.2592 C.ar    1  ZINC000817655807    0.0600
     15 O15       -11.5388   -2.7327   59.8757 O.3     1  ZINC000817655807   -0.2900
     16 C16       -10.2808   -2.9880   59.2414 C.3     1  ZINC000817655807    0.0200
     17 C17        -9.1811   -2.2978   60.0596 C.3     1  ZINC000817655807    0.0200
     18 O18        -9.4610   -0.8940   60.0925 O.3     1  ZINC000817655807   -0.3000
     19 C19       -10.7430   -0.5324   60.3723 C.ar    1  ZINC000817655807    0.0600
     20 C20       -11.0119    0.7690   60.7693 C.ar    1  ZINC000817655807   -0.0900
     21 C21       -11.1650    2.9891   65.1260 C.3     1  ZINC000817655807    0.1100
     22 O22        -8.6690    3.2862   65.3999 O.3     1  ZINC000817655807   -0.3000
     23 C23        -7.8002    2.3767   65.8665 C.2     1  ZINC000817655807    0.6400
     24 O24        -6.7972    2.6734   66.4851 O.2     1  ZINC000817655807   -0.5100
     25 H25        -6.4841    0.2182   66.5148 H       1  ZINC000817655807    0.0900
     26 H26        -7.9919   -0.7251   66.5857 H       1  ZINC000817655807    0.0700
     27 H27        -7.0759   -0.6243   65.0628 H       1  ZINC000817655807    0.0700
     28 H28        -9.2616    0.6769   63.8361 H       1  ZINC000817655807    0.1000
     29 H29       -10.1785    0.5792   65.3745 H       1  ZINC000817655807    0.1000
     30 H30        -9.8463    4.1548   63.1520 H       1  ZINC000817655807    0.1100
     31 H31        -9.7288    2.4556   62.5142 H       1  ZINC000817655807    0.1000
     32 H32       -13.5604    2.8789   61.0978 H       1  ZINC000817655807    0.1100
     33 H33       -11.8149    3.2265   61.1216 H       1  ZINC000817655807    0.1100
     34 H34       -14.3546    0.5443   61.1647 H       1  ZINC000817655807    0.1400
     35 H35       -10.0963   -4.0617   59.2099 H       1  ZINC000817655807    0.1300
     36 H36       -10.2918   -2.5864   58.2281 H       1  ZINC000817655807    0.0800
     37 H37        -9.1739   -2.6950   61.0746 H       1  ZINC000817655807    0.0800
     38 H38        -8.2120   -2.4684   59.5906 H       1  ZINC000817655807    0.1300
     39 H39       -10.2067    1.4836   60.8559 H       1  ZINC000817655807    0.1400
     40 H40       -11.6585    2.2499   65.7569 H       1  ZINC000817655807    0.1000
     41 H41       -11.2503    4.0052   65.5112 H       1  ZINC000817655807    0.1100
@<TRIPOS>BOND
     1     1     2    1
     2     1    25    1
     3     1    26    1
     4     1    27    1
     5     2    23   am
     6     2     3    1
     7     3     4    1
     8     3    28    1
     9     3    29    1
    10     4    21    1
    11     4     5    1
    12     4    22    1
    13     5     6    1
    14     5    30    1
    15     5    31    1
    16     6     7   am
    17     6    21    1
    18     7     8    2
    19     7     9    1
    20     9    10    1
    21     9    32    1
    22     9    33    1
    23    10    20   ar
    24    10    11   ar
    25    11    12   ar
    26    11    34    1
    27    12    13    1
    28    12    14   ar
    29    14    19   ar
    30    14    15    1
    31    15    16    1
    32    16    17    1
    33    16    35    1
    34    16    36    1
    35    17    18    1
    36    17    37    1
    37    17    38    1
    38    18    19    1
    39    19    20   ar
    40    20    39    1
    41    21    40    1
    42    21    41    1
    43    22    23    1
    44    23    24    2
@<TRIPOS>SUBSTRUCTURE
     1 ZINC000817655807        1 TEMP              0 ****  ****    0 ROOT


##########                                Name:    ZINC000541568816
##########                DOCK_Rotatable_Bonds:                   8
##########                         Heavy_Atoms:                  25
##########                    Molecular_Weight:             411.339
##########                DOCK_Rotatable_Bonds:                   8
##########                       Formal_Charge:          -0.0100007
##########                     HBond_Acceptors:                   5
##########                        HBond_Donors:                   1
##########                         Heavy_Atoms:                  25
##########                          Grid_Score:          -29.261002
##########                     Grid_vdw_energy:          -26.499413
##########                      Grid_es_energy:           -2.761588
##########           Internal_energy_repulsive:           23.767487

@<TRIPOS>MOLECULE
ZINC000541568816
 52 54 1 0 0
SMALL
USER_CHARGES


@<TRIPOS>ATOM
      1 C1         -8.8160   -3.8884   57.0428 C.3     1  ZINC000541568816   -0.1500
      2 C2         -8.9865   -3.0553   58.3148 C.3     1  ZINC000541568816    0.0600
      3 O3        -10.0748   -2.1448   58.1455 O.3     1  ZINC000541568816   -0.3700
      4 C4        -10.2849   -1.2765   59.2608 C.3     1  ZINC000541568816    0.0700
      5 H5         -9.5854   -0.4411   59.2850 H       1  ZINC000541568816    0.0900
      6 C6        -10.4089   -2.0167   60.6044 C.3     1  ZINC000541568816   -0.1700
      7 C7        -11.5361   -1.0303   60.9570 C.3     1  ZINC000541568816    0.1500
      8 H8        -12.3798   -1.4949   61.4673 H       1  ZINC000541568816    0.1100
      9 N9        -11.0653    0.1851   61.6259 N.am    1  ZINC000541568816   -0.7200
     10 C10       -11.9150    0.9131   62.3772 C.2     1  ZINC000541568816    0.7100
     11 O11       -13.0719    0.5604   62.5011 O.2     1  ZINC000541568816   -0.5800
     12 N12       -11.4822    2.0321   62.9912 N.am    1  ZINC000541568816   -0.6300
     13 C13       -12.4063    2.8244   63.8065 C.3     1  ZINC000541568816    0.1000
     14 C14       -12.7171    2.0720   65.1020 C.3     1  ZINC000541568816   -0.1800
     15 C15       -10.0877    2.4561   62.8434 C.3     1  ZINC000541568816    0.1700
     16 C16        -9.2603    1.8564   63.9509 C.ar    1  ZINC000541568816   -0.0700
     17 C17        -8.8733    0.5313   63.8846 C.ar    1  ZINC000541568816   -0.1000
     18 C18        -8.1141   -0.0190   64.9007 C.ar    1  ZINC000541568816   -0.1000
     19 C19        -7.7415    0.7558   65.9830 C.ar    1  ZINC000541568816   -0.1200
     20 C20        -8.1282    2.0813   66.0502 C.ar    1  ZINC000541568816   -0.0900
     21 C21        -8.8832    2.6336   65.0315 C.ar    1  ZINC000541568816   -0.0900
     22 Br22       -9.4124    4.4468   65.1228 Br      1  ZINC000541568816   -0.0500
     23 C23       -11.7471   -0.8591   59.4474 C.3     1  ZINC000541568816    0.0800
     24 C24       -12.7725   -1.8260   58.8303 C.3     1  ZINC000541568816   -0.1200
     25 C25       -13.9575   -0.8757   58.5011 C.3     1  ZINC000541568816   -0.1600
     26 C26       -13.2002    0.4264   58.1357 C.3     1  ZINC000541568816    0.0500
     27 O27       -12.0671    0.4637   59.0209 O.3     1  ZINC000541568816   -0.3600
     28 H28        -9.7312   -4.4481   56.8496 H       1  ZINC000541568816    0.0600
     29 H29        -8.6095   -3.2278   56.2008 H       1  ZINC000541568816    0.0600
     30 H30        -7.9859   -4.5829   57.1719 H       1  ZINC000541568816    0.0700
     31 H31        -9.1930   -3.7160   59.1568 H       1  ZINC000541568816    0.0500
     32 H32        -8.0713   -2.4957   58.5080 H       1  ZINC000541568816    0.0500
     33 H33       -10.7470   -3.0482   60.5047 H       1  ZINC000541568816    0.1000
     34 H34        -9.5286   -1.9185   61.2395 H       1  ZINC000541568816    0.0800
     35 H35       -10.1420    0.4659   61.5280 H       1  ZINC000541568816    0.4000
     36 H36       -11.9487    3.7846   64.0448 H       1  ZINC000541568816    0.0900
     37 H37       -13.3299    2.9897   63.2518 H       1  ZINC000541568816    0.0700
     38 H38       -11.7934    1.9066   65.6566 H       1  ZINC000541568816    0.0600
     39 H39       -13.4046    2.6615   65.7085 H       1  ZINC000541568816    0.0700
     40 H40       -13.1745    1.1118   64.8636 H       1  ZINC000541568816    0.0600
     41 H41        -9.7054    2.1181   61.8803 H       1  ZINC000541568816    0.1000
     42 H42       -10.0311    3.5434   62.8955 H       1  ZINC000541568816    0.1100
     43 H43        -9.1642   -0.0744   63.0392 H       1  ZINC000541568816    0.1300
     44 H44        -7.8124   -1.0548   64.8489 H       1  ZINC000541568816    0.1300
     45 H45        -7.1485    0.3254   66.7765 H       1  ZINC000541568816    0.1300
     46 H46        -7.8373    2.6866   66.8960 H       1  ZINC000541568816    0.1300
     47 H47       -12.3781   -2.2847   57.9236 H       1  ZINC000541568816    0.1000
     48 H48       -13.0724   -2.5869   59.5509 H       1  ZINC000541568816    0.0900
     49 H49       -14.5338   -1.2458   57.6532 H       1  ZINC000541568816    0.0900
     50 H50       -14.5955   -0.7274   59.3723 H       1  ZINC000541568816    0.0800
     51 H51       -12.8684    0.3925   57.0980 H       1  ZINC000541568816    0.0600
     52 H52       -13.8384    1.2944   58.3015 H       1  ZINC000541568816    0.0900
@<TRIPOS>BOND
     1     1     2    1
     2     1    28    1
     3     1    29    1
     4     1    30    1
     5     2     3    1
     6     2    31    1
     7     2    32    1
     8     3     4    1
     9     4     5    1
    10     4    23    1
    11     4     6    1
    12     6     7    1
    13     6    33    1
    14     6    34    1
    15     7     8    1
    16     7     9    1
    17     7    23    1
    18     9    10   am
    19     9    35    1
    20    10    11    2
    21    10    12   am
    22    12    13    1
    23    12    15    1
    24    13    14    1
    25    13    36    1
    26    13    37    1
    27    14    38    1
    28    14    39    1
    29    14    40    1
    30    15    16    1
    31    15    41    1
    32    15    42    1
    33    16    21   ar
    34    16    17   ar
    35    17    18   ar
    36    17    43    1
    37    18    19   ar
    38    18    44    1
    39    19    20   ar
    40    19    45    1
    41    20    21   ar
    42    20    46    1
    43    21    22    1
    44    23    27    1
    45    23    24    1
    46    24    25    1
    47    24    47    1
    48    24    48    1
    49    25    26    1
    50    25    49    1
    51    25    50    1
    52    26    27    1
    53    26    51    1
    54    26    52    1
@<TRIPOS>SUBSTRUCTURE
     1 ZINC000541568816        1 TEMP              0 ****  ****    0 ROOT


##########                                Name:    ZINC001181473921
##########                DOCK_Rotatable_Bonds:                   9
##########                         Heavy_Atoms:                  24
##########                    Molecular_Weight:             357.431
##########                DOCK_Rotatable_Bonds:                   9
##########                       Formal_Charge:        -5.96046e-08
##########                     HBond_Acceptors:                   9
##########                        HBond_Donors:                   4
##########                         Heavy_Atoms:                  24
##########                          Grid_Score:          -29.207792
##########                     Grid_vdw_energy:          -28.711384
##########                      Grid_es_energy:           -0.496408
##########           Internal_energy_repulsive:          122.448044

@<TRIPOS>MOLECULE
ZINC001181473921
 47 48 1 0 0
SMALL
USER_CHARGES


@<TRIPOS>ATOM
      1 C1        -11.7488   -3.2185   56.9586 C.3     1  ZINC001181473921   -0.1300
      2 C2        -10.4113   -3.2774   57.6503 C.2     1  ZINC001181473921    0.1900
      3 C3         -9.3665   -3.8677   57.0313 C.2     1  ZINC001181473921   -0.2400
      4 C4         -8.1133   -3.9253   57.6730 C.2     1  ZINC001181473921    0.2500
      5 O5         -7.0556   -4.5136   57.0649 O.3     1  ZINC001181473921   -0.4600
      6 C6         -7.9800   -3.3717   58.9329 C.2     1  ZINC001181473921   -0.3700
      7 C7         -9.0920   -2.7705   59.5341 C.2     1  ZINC001181473921    0.5300
      8 O8         -8.9905   -2.2766   60.6463 O.2     1  ZINC001181473921   -0.5500
      9 N9        -10.2712   -2.7308   58.8865 N.am    1  ZINC001181473921   -0.5000
     10 C10       -11.4253   -2.0976   59.5294 C.3     1  ZINC001181473921    0.1000
     11 C11       -11.4087   -0.5951   59.2414 C.3     1  ZINC001181473921   -0.1600
     12 C12       -12.1084    0.1381   60.3568 C.2     1  ZINC001181473921    0.5200
     13 O13       -12.9402   -0.4331   61.0297 O.2     1  ZINC001181473921   -0.5300
     14 N14       -11.8100    1.4284   60.6064 N.am    1  ZINC001181473921   -0.7200
     15 C15       -12.4915    2.1416   61.6896 C.3     1  ZINC001181473921    0.1400
     16 H16       -13.5732    2.0847   61.5669 H       1  ZINC001181473921    0.1000
     17 C17       -12.0233    3.6165   61.7554 C.3     1  ZINC001181473921   -0.1300
     18 C18       -12.3068    4.0387   63.2118 C.3     1  ZINC001181473921   -0.1500
     19 C19       -12.3311    2.7467   64.0473 C.3     1  ZINC001181473921   -0.0800
     20 H20       -13.3080    2.6225   64.5146 H       1  ZINC001181473921    0.0900
     21 C21       -11.2402    2.7951   65.1191 C.3     1  ZINC001181473921   -0.6200
     22 S22        -9.6517    2.3143   64.3872 S.o2    1  ZINC001181473921    2.6100
     23 N23        -9.7263    2.8767   62.8315 N.am    1  ZINC001181473921   -1.2500
     24 O24        -8.5883    3.0508   64.9756 O.2     1  ZINC001181473921   -0.9600
     25 O25        -9.5747    0.9024   64.2461 O.2     1  ZINC001181473921   -0.9600
     26 C26       -12.0653    1.5811   63.0692 C.3     1  ZINC001181473921   -0.1200
     27 H27       -12.0845   -2.1829   56.9045 H       1  ZINC001181473921    0.0900
     28 H28       -11.6547   -3.6230   55.9508 H       1  ZINC001181473921    0.1000
     29 H29       -12.4744   -3.8070   57.5199 H       1  ZINC001181473921    0.0900
     30 H30        -9.4911   -4.2947   56.0471 H       1  ZINC001181473921    0.1500
     31 H31        -6.1972   -4.1768   57.3559 H       1  ZINC001181473921    0.4100
     32 H32        -7.0304   -3.4029   59.4465 H       1  ZINC001181473921    0.1500
     33 H33       -12.3442   -2.5327   59.1365 H       1  ZINC001181473921    0.1000
     34 H34       -11.3770   -2.2617   60.6059 H       1  ZINC001181473921    0.1100
     35 H35       -10.3771   -0.2499   59.1709 H       1  ZINC001181473921    0.1100
     36 H36       -11.9223   -0.3998   58.3000 H       1  ZINC001181473921    0.1000
     37 H37       -11.1439    1.8849   60.0690 H       1  ZINC001181473921    0.4000
     38 H38       -10.9577    3.6886   61.5379 H       1  ZINC001181473921    0.0700
     39 H39       -12.5977    4.2305   61.0616 H       1  ZINC001181473921    0.0800
     40 H40       -11.5174    4.6998   63.5694 H       1  ZINC001181473921    0.0900
     41 H41       -13.2719    4.5416   63.2738 H       1  ZINC001181473921    0.0800
     42 H42       -11.1658    3.8075   65.5163 H       1  ZINC001181473921    0.1400
     43 H43       -11.4923    2.1061   65.9252 H       1  ZINC001181473921    0.1400
     44 H44        -9.8440    3.8248   62.6636 H       1  ZINC001181473921    0.4100
     45 H45        -9.6522    2.2581   62.0880 H       1  ZINC001181473921    0.4200
     46 H46       -12.6684    0.7135   63.3368 H       1  ZINC001181473921    0.0800
     47 H47       -11.0063    1.3232   63.0619 H       1  ZINC001181473921    0.0800
@<TRIPOS>BOND
     1     1     2    1
     2     1    27    1
     3     1    28    1
     4     1    29    1
     5     2     9    1
     6     2     3    2
     7     3     4    1
     8     3    30    1
     9     4     5    1
    10     4     6    2
    11     5    31    1
    12     6     7    1
    13     6    32    1
    14     7     8    2
    15     7     9   am
    16     9    10    1
    17    10    11    1
    18    10    33    1
    19    10    34    1
    20    11    12    1
    21    11    35    1
    22    11    36    1
    23    12    13    2
    24    12    14   am
    25    14    15    1
    26    14    37    1
    27    15    16    1
    28    15    26    1
    29    15    17    1
    30    17    18    1
    31    17    38    1
    32    17    39    1
    33    18    19    1
    34    18    40    1
    35    18    41    1
    36    19    20    1
    37    19    21    1
    38    19    26    1
    39    21    22    1
    40    21    42    1
    41    21    43    1
    42    22    23   am
    43    22    24    2
    44    22    25    2
    45    23    44    1
    46    23    45    1
    47    26    46    1
    48    26    47    1
@<TRIPOS>SUBSTRUCTURE
     1 ZINC001181473921        1 TEMP              0 ****  ****    0 ROOT


##########                                Name:    ZINC001573443776
##########                DOCK_Rotatable_Bonds:                   8
##########                         Heavy_Atoms:                  28
##########                    Molecular_Weight:             386.457
##########                DOCK_Rotatable_Bonds:                   8
##########                       Formal_Charge:          0.00999954
##########                     HBond_Acceptors:                  10
##########                        HBond_Donors:                   3
##########                         Heavy_Atoms:                  28
##########                          Grid_Score:          -29.196810
##########                     Grid_vdw_energy:          -28.709473
##########                      Grid_es_energy:           -0.487337
##########           Internal_energy_repulsive:           37.605106

@<TRIPOS>MOLECULE
ZINC001573443776
 54 56 1 0 0
SMALL
USER_CHARGES


@<TRIPOS>ATOM
      1 C1         -2.0511    3.1117   67.2194 C.3     1  ZINC001573443776   -0.1800
      2 C2         -3.5238    2.8001   67.1479 C.2     1  ZINC001573443776    0.5100
      3 O3         -3.9419    1.7453   67.5763 O.2     1  ZINC001573443776   -0.5400
      4 N4         -4.3761    3.6936   66.6079 N.am    1  ZINC001573443776   -0.6100
      5 C5         -3.8844    4.9756   66.0848 C.3     1  ZINC001573443776    0.1100
      6 C6         -4.6769    6.1117   66.7392 C.3     1  ZINC001573443776   -0.1300
      7 C7         -6.1732    5.8761   66.5211 C.3     1  ZINC001573443776   -0.1000
      8 C8         -6.5852    4.5578   67.1803 C.3     1  ZINC001573443776   -0.1200
      9 H9         -6.3546    4.5956   68.2449 H       1  ZINC001573443776    0.1000
     10 C10        -8.0651    4.3430   66.9935 C.2     1  ZINC001573443776    0.5200
     11 O11        -8.8479    4.7644   67.8184 O.2     1  ZINC001573443776   -0.5300
     12 N12        -8.5186    3.6824   65.9097 N.am    1  ZINC001573443776   -0.7300
     13 C13        -9.9574    3.4752   65.7273 C.3     1  ZINC001573443776    0.1100
     14 C14       -10.1915    2.1753   64.9549 C.3     1  ZINC001573443776    0.1400
     15 H15        -9.7482    1.3430   65.5015 H       1  ZINC001573443776    0.0900
     16 C16       -11.6950    1.9392   64.7976 C.3     1  ZINC001573443776   -0.1700
     17 N17        -9.5718    2.2755   63.6312 N.pl3   1  ZINC001573443776   -0.7200
     18 C18        -9.5326    1.1655   62.7969 C.ar    1  ZINC001573443776    0.4300
     19 C19        -8.7983    0.0458   63.1772 C.ar    1  ZINC001573443776   -0.2500
     20 C20        -8.7647   -1.0539   62.3423 C.ar    1  ZINC001573443776    0.0100
     21 C21        -9.4756   -0.9975   61.1387 C.ar    1  ZINC001573443776   -0.1400
     22 C22        -9.4712   -2.1534   60.2076 C.2     1  ZINC001573443776    0.2400
     23 N23        -8.4361   -2.6223   59.5393 N.2     1  ZINC001573443776   -0.3000
     24 N24        -8.8393   -3.6294   58.8436 N.pl3   1  ZINC001573443776   -0.2300
     25 N25       -10.0966   -3.8136   59.0499 N.2     1  ZINC001573443776   -0.0500
     26 N26       -10.5178   -2.9276   59.8872 N.2     1  ZINC001573443776   -0.2700
     27 C27       -10.1872    0.1570   60.8264 C.ar    1  ZINC001573443776    0.2300
     28 C28       -10.9573    0.2312   59.5332 C.3     1  ZINC001573443776   -0.1200
     29 N29       -10.1987    1.1840   61.6520 N.ar    1  ZINC001573443776   -0.5400
     30 C30        -5.8137    3.4017   66.5257 C.3     1  ZINC001573443776    0.1200
     31 H31        -1.5470    2.6851   66.3521 H       1  ZINC001573443776    0.0900
     32 H32        -1.9082    4.1921   67.2276 H       1  ZINC001573443776    0.0800
     33 H33        -1.6328    2.6829   68.1300 H       1  ZINC001573443776    0.1000
     34 H34        -2.8261    5.0849   66.3211 H       1  ZINC001573443776    0.1000
     35 H35        -4.0249    5.0073   65.0043 H       1  ZINC001573443776    0.0700
     36 H36        -4.4642    6.1349   67.8081 H       1  ZINC001573443776    0.0700
     37 H37        -4.3888    7.0620   66.2897 H       1  ZINC001573443776    0.0800
     38 H38        -6.7383    6.6959   66.9646 H       1  ZINC001573443776    0.0800
     39 H39        -6.3813    5.8283   65.4523 H       1  ZINC001573443776    0.0700
     40 H40        -7.8925    3.3443   65.2506 H       1  ZINC001573443776    0.4000
     41 H41       -10.4417    3.4111   66.7017 H       1  ZINC001573443776    0.0900
     42 H42       -10.3768    4.3111   65.1674 H       1  ZINC001573443776    0.0800
     43 H43       -12.1560    1.8647   65.7825 H       1  ZINC001573443776    0.0700
     44 H44       -12.1382    2.7715   64.2509 H       1  ZINC001573443776    0.0700
     45 H45       -11.8617    1.0132   64.2475 H       1  ZINC001573443776    0.0700
     46 H46        -9.1889    3.1169   63.3374 H       1  ZINC001573443776    0.4100
     47 H47        -8.2610    0.0371   64.1139 H       1  ZINC001573443776    0.1400
     48 H48        -8.2030   -1.9359   62.6120 H       1  ZINC001573443776    0.1400
     49 H49        -8.2827   -4.1646   58.2564 H       1  ZINC001573443776    0.4800
     50 H50       -11.9718   -0.1341   59.6928 H       1  ZINC001573443776    0.0800
     51 H51       -10.9933    1.2654   59.1906 H       1  ZINC001573443776    0.0800
     52 H52       -10.4639   -0.3838   58.7806 H       1  ZINC001573443776    0.1100
     53 H53        -6.1137    3.3068   65.4820 H       1  ZINC001573443776    0.0800
     54 H54        -6.0277    2.4734   67.0554 H       1  ZINC001573443776    0.0900
@<TRIPOS>BOND
     1     1     2    1
     2     1    31    1
     3     1    32    1
     4     1    33    1
     5     2     3    2
     6     2     4   am
     7     4    30    1
     8     4     5    1
     9     5     6    1
    10     5    34    1
    11     5    35    1
    12     6     7    1
    13     6    36    1
    14     6    37    1
    15     7     8    1
    16     7    38    1
    17     7    39    1
    18     8     9    1
    19     8    10    1
    20     8    30    1
    21    10    11    2
    22    10    12   am
    23    12    13    1
    24    12    40    1
    25    13    14    1
    26    13    41    1
    27    13    42    1
    28    14    15    1
    29    14    16    1
    30    14    17    1
    31    16    43    1
    32    16    44    1
    33    16    45    1
    34    17    18    1
    35    17    46    1
    36    18    29   ar
    37    18    19   ar
    38    19    20   ar
    39    19    47    1
    40    20    21   ar
    41    20    48    1
    42    21    22    1
    43    21    27   ar
    44    22    26    1
    45    22    23    2
    46    23    24    1
    47    24    25    1
    48    24    49    1
    49    25    26    2
    50    27    28    1
    51    27    29   ar
    52    28    50    1
    53    28    51    1
    54    28    52    1
    55    30    53    1
    56    30    54    1
@<TRIPOS>SUBSTRUCTURE
     1 ZINC001573443776        1 TEMP              0 ****  ****    0 ROOT


##########                                Name:    ZINC000489403631
##########                DOCK_Rotatable_Bonds:                   7
##########                         Heavy_Atoms:                  28
##########                    Molecular_Weight:             381.391
##########                DOCK_Rotatable_Bonds:                   7
##########                       Formal_Charge:          -0.0300003
##########                     HBond_Acceptors:                   9
##########                        HBond_Donors:                   1
##########                         Heavy_Atoms:                  28
##########                          Grid_Score:          -29.142643
##########                     Grid_vdw_energy:          -29.655361
##########                      Grid_es_energy:            0.512719
##########           Internal_energy_repulsive:           13.970963

@<TRIPOS>MOLECULE
ZINC000489403631
 47 49 1 0 0
SMALL
USER_CHARGES


@<TRIPOS>ATOM
      1 C1        -12.8122    0.5145   58.1942 C.3     1  ZINC000489403631   -0.1100
      2 C2        -11.6686    0.1564   59.1078 C.ar    1  ZINC000489403631   -0.0800
      3 C3        -11.2697    1.0379   60.0925 C.ar    1  ZINC000489403631   -0.0900
      4 C4        -10.2157    0.7077   60.9344 C.ar    1  ZINC000489403631    0.1200
      5 N5         -9.8108    1.6017   61.9340 N.am    1  ZINC000489403631   -0.6600
      6 C6        -10.3598    1.5323   63.1629 C.2     1  ZINC000489403631    0.5100
      7 O7        -11.2045    0.6958   63.4034 O.2     1  ZINC000489403631   -0.4600
      8 C8         -9.9241    2.4941   64.2382 C.3     1  ZINC000489403631    0.1700
      9 C9         -9.2108    3.6864   63.5975 C.3     1  ZINC000489403631   -0.1700
     10 C10       -11.1505    2.9874   65.0086 C.3     1  ZINC000489403631   -0.1700
     11 N11        -9.0094    1.8151   65.1594 N.pl3   1  ZINC000489403631   -0.3400
     12 C12        -8.0127    2.3954   65.8599 C.2     1  ZINC000489403631    0.1500
     13 C13        -7.4055    1.4309   66.5894 C.2     1  ZINC000489403631   -0.1900
     14 N14        -6.2588    1.6238   67.5053 N.pl3   1  ZINC000489403631    0.0700
     15 O15        -5.7960    0.6734   68.1103 O.2     1  ZINC000489403631   -0.1700
     16 O16        -5.7781    2.7331   67.6539 O.2     1  ZINC000489403631   -0.1600
     17 C17        -8.0533    0.2197   66.3255 C.2     1  ZINC000489403631    0.1000
     18 N18        -9.0188    0.4499   65.4731 N.2     1  ZINC000489403631   -0.2200
     19 C19        -9.5638   -0.5090   60.7852 C.ar    1  ZINC000489403631   -0.1100
     20 C20        -9.9637   -1.3900   59.7999 C.ar    1  ZINC000489403631   -0.1700
     21 C21       -11.0203   -1.0620   58.9629 C.ar    1  ZINC000489403631    0.1000
     22 O22       -11.4136   -1.9299   57.9930 O.3     1  ZINC000489403631   -0.2500
     23 C23       -12.5565   -2.6338   58.1933 C.ar    1  ZINC000489403631    0.1400
     24 C24       -13.1271   -2.7239   59.4608 C.ar    1  ZINC000489403631   -0.2000
     25 C25       -14.2895   -3.4491   59.6231 C.ar    1  ZINC000489403631    0.1200
     26 N26       -14.8592   -4.0522   58.5968 N.ar    1  ZINC000489403631   -0.4900
     27 C27       -14.3492   -3.9900   57.3813 C.ar    1  ZINC000489403631    0.1200
     28 C28       -13.1921   -3.2799   57.1355 C.ar    1  ZINC000489403631   -0.1800
     29 H29       -13.7490    0.1708   58.6328 H       1  ZINC000489403631    0.0700
     30 H30       -12.8477    1.5961   58.0633 H       1  ZINC000489403631    0.0700
     31 H31       -12.6673    0.0358   57.2257 H       1  ZINC000489403631    0.0700
     32 H32       -11.7769    1.9844   60.2078 H       1  ZINC000489403631    0.1500
     33 H33        -9.1352    2.2707   61.7416 H       1  ZINC000489403631    0.4100
     34 H34        -9.8914    4.1916   62.9121 H       1  ZINC000489403631    0.1000
     35 H35        -8.8957    4.3821   64.3753 H       1  ZINC000489403631    0.0900
     36 H36        -8.3370    3.3350   63.0487 H       1  ZINC000489403631    0.0800
     37 H37       -11.6588    2.1380   65.4650 H       1  ZINC000489403631    0.0800
     38 H38       -10.8355    3.6830   65.7863 H       1  ZINC000489403631    0.0900
     39 H39       -11.8311    3.4926   64.3232 H       1  ZINC000489403631    0.0900
     40 H40        -7.7470    3.4420   65.8415 H       1  ZINC000489403631    0.2000
     41 H41        -7.8030   -0.7390   66.7550 H       1  ZINC000489403631    0.2100
     42 H42        -8.7439   -0.7662   61.4394 H       1  ZINC000489403631    0.1300
     43 H43        -9.4567   -2.3366   59.6838 H       1  ZINC000489403631    0.1300
     44 H44       -12.6657   -2.2332   60.3050 H       1  ZINC000489403631    0.1400
     45 H45       -14.7386   -3.5246   60.6024 H       1  ZINC000489403631    0.1600
     46 H46       -14.8461   -4.4980   56.5679 H       1  ZINC000489403631    0.1700
     47 H47       -12.7801   -3.2327   56.1383 H       1  ZINC000489403631    0.1500
@<TRIPOS>BOND
     1     1     2    1
     2     1    29    1
     3     1    30    1
     4     1    31    1
     5     2    21   ar
     6     2     3   ar
     7     3     4   ar
     8     3    32    1
     9     4     5    1
    10     4    19   ar
    11     5     6   am
    12     5    33    1
    13     6     7    2
    14     6     8    1
    15     8     9    1
    16     8    10    1
    17     8    11    1
    18     9    34    1
    19     9    35    1
    20     9    36    1
    21    10    37    1
    22    10    38    1
    23    10    39    1
    24    11    18    1
    25    11    12    1
    26    12    13    2
    27    12    40    1
    28    13    14    1
    29    13    17    1
    30    14    15    2
    31    14    16    2
    32    17    18    2
    33    17    41    1
    34    19    20   ar
    35    19    42    1
    36    20    21   ar
    37    20    43    1
    38    21    22    1
    39    22    23    1
    40    23    28   ar
    41    23    24   ar
    42    24    25   ar
    43    24    44    1
    44    25    26   ar
    45    25    45    1
    46    26    27   ar
    47    27    28   ar
    48    27    46    1
    49    28    47    1
@<TRIPOS>SUBSTRUCTURE
     1 ZINC000489403631        1 TEMP              0 ****  ****    0 ROOT


##########                                Name:    ZINC000794876634
##########                DOCK_Rotatable_Bonds:                   4
##########                         Heavy_Atoms:                  24
##########                    Molecular_Weight:             389.249
##########                DOCK_Rotatable_Bonds:                   4
##########                       Formal_Charge:        -4.47035e-08
##########                     HBond_Acceptors:                   5
##########                        HBond_Donors:                   0
##########                         Heavy_Atoms:                  24
##########                          Grid_Score:          -29.138802
##########                     Grid_vdw_energy:          -27.996981
##########                      Grid_es_energy:           -1.141821
##########           Internal_energy_repulsive:           56.885155

@<TRIPOS>MOLECULE
ZINC000794876634
 41 43 1 0 0
SMALL
USER_CHARGES


@<TRIPOS>ATOM
      1 C1        -10.9760    4.4532   65.4381 C.3     1  ZINC000794876634    0.0200
      2 O2        -10.3048    3.2403   65.7848 O.3     1  ZINC000794876634   -0.3000
      3 C3        -10.0142    2.3849   64.7708 C.ar    1  ZINC000794876634    0.1300
      4 C4         -9.3423    1.1990   65.0370 C.ar    1  ZINC000794876634   -0.1800
      5 C5         -9.0441    0.3273   64.0134 C.ar    1  ZINC000794876634   -0.0400
      6 C6         -8.3149   -0.9585   64.3065 C.3     1  ZINC000794876634   -0.1200
      7 C7         -9.4193    0.6365   62.6993 C.ar    1  ZINC000794876634   -0.1000
      8 C8         -9.1039   -0.2891   61.6074 C.2     1  ZINC000794876634    0.0600
      9 C9        -10.1101   -0.9282   60.9425 C.2     1  ZINC000794876634   -0.1700
     10 C10       -11.5591   -0.8129   61.1811 C.2     1  ZINC000794876634    0.5700
     11 O11       -12.0925   -0.1155   62.0245 O.2     1  ZINC000794876634   -0.4900
     12 N12       -12.1881   -1.6125   60.3036 N.am    1  ZINC000794876634   -0.5300
     13 C13       -13.6429   -1.7688   60.2277 C.3     1  ZINC000794876634    0.0800
     14 C14       -11.2895   -2.2705   59.4783 C.ar    1  ZINC000794876634    0.3700
     15 N15       -11.4758   -3.1376   58.4908 N.ar    1  ZINC000794876634   -0.4900
     16 C16       -10.4675   -3.6557   57.8193 C.ar    1  ZINC000794876634    0.1800
     17 C17        -9.1567   -3.3214   58.1099 C.ar    1  ZINC000794876634   -0.1800
     18 Br18       -7.7329   -4.0833   57.1258 Br      1  ZINC000794876634   -0.0200
     19 C19        -8.9009   -2.4195   59.1326 C.ar    1  ZINC000794876634    0.0000
     20 C20        -9.9849   -1.8838   59.8201 C.ar    1  ZINC000794876634   -0.1400
     21 C21       -10.0979    1.8340   62.4324 C.ar    1  ZINC000794876634   -0.1400
     22 C22       -10.3966    2.6980   63.4659 C.ar    1  ZINC000794876634    0.0900
     23 O23       -11.0551    3.8603   63.2110 O.3     1  ZINC000794876634   -0.3000
     24 C24       -11.4154    4.1174   61.8523 C.3     1  ZINC000794876634    0.0200
     25 H25       -11.1474    5.0436   66.3381 H       1  ZINC000794876634    0.1000
     26 H26       -10.3605    5.0228   64.7417 H       1  ZINC000794876634    0.0600
     27 H27       -11.9319    4.2185   64.9699 H       1  ZINC000794876634    0.0600
     28 H28        -9.0527    0.9599   66.0496 H       1  ZINC000794876634    0.1400
     29 H29        -9.0379   -1.7454   64.5213 H       1  ZINC000794876634    0.0800
     30 H30        -7.7158   -1.2419   63.4412 H       1  ZINC000794876634    0.0700
     31 H31        -7.6635   -0.8183   65.1692 H       1  ZINC000794876634    0.0700
     32 H32        -8.0754   -0.4654   61.3291 H       1  ZINC000794876634    0.1500
     33 H33       -14.1155   -1.1429   60.9846 H       1  ZINC000794876634    0.0900
     34 H34       -13.9896   -1.4678   59.2391 H       1  ZINC000794876634    0.0800
     35 H35       -13.9057   -2.8120   60.4029 H       1  ZINC000794876634    0.0800
     36 H36       -10.6688   -4.3579   57.0237 H       1  ZINC000794876634    0.1800
     37 H37        -7.8891   -2.1381   59.3847 H       1  ZINC000794876634    0.1600
     38 H38       -10.3896    2.0775   61.4215 H       1  ZINC000794876634    0.1400
     39 H39       -10.5125    4.2329   61.2527 H       1  ZINC000794876634    0.0500
     40 H40       -12.0026    3.2834   61.4681 H       1  ZINC000794876634    0.0600
     41 H41       -12.0059    5.0321   61.7998 H       1  ZINC000794876634    0.1100
@<TRIPOS>BOND
     1     1     2    1
     2     1    25    1
     3     1    26    1
     4     1    27    1
     5     2     3    1
     6     3    22   ar
     7     3     4   ar
     8     4     5   ar
     9     4    28    1
    10     5     6    1
    11     5     7   ar
    12     6    29    1
    13     6    30    1
    14     6    31    1
    15     7     8    1
    16     7    21   ar
    17     8     9    2
    18     8    32    1
    19     9    20    1
    20     9    10    1
    21    10    11    2
    22    10    12   am
    23    12    13    1
    24    12    14    1
    25    13    33    1
    26    13    34    1
    27    13    35    1
    28    14    20   ar
    29    14    15   ar
    30    15    16   ar
    31    16    17   ar
    32    16    36    1
    33    17    18    1
    34    17    19   ar
    35    19    20   ar
    36    19    37    1
    37    21    22   ar
    38    21    38    1
    39    22    23    1
    40    23    24    1
    41    24    39    1
    42    24    40    1
    43    24    41    1
@<TRIPOS>SUBSTRUCTURE
     1 ZINC000794876634        1 TEMP              0 ****  ****    0 ROOT


##########                                Name:    ZINC000076573199
##########                DOCK_Rotatable_Bonds:                  10
##########                         Heavy_Atoms:                  24
##########                    Molecular_Weight:             333.431
##########                DOCK_Rotatable_Bonds:                  10
##########                       Formal_Charge:          -0.0200009
##########                     HBond_Acceptors:                   6
##########                        HBond_Donors:                   3
##########                         Heavy_Atoms:                  24
##########                          Grid_Score:          -29.133907
##########                     Grid_vdw_energy:          -24.796694
##########                      Grid_es_energy:           -4.337214
##########           Internal_energy_repulsive:           35.289570

@<TRIPOS>MOLECULE
ZINC000076573199
 51 51 1 0 0
SMALL
USER_CHARGES


@<TRIPOS>ATOM
      1 C1        -10.4850    6.2289   64.9269 C.3     1  ZINC000076573199   -0.1500
      2 C2        -10.6151    6.2100   63.4025 C.3     1  ZINC000076573199   -0.1200
      3 C3        -11.0003    4.8030   62.9410 C.3     1  ZINC000076573199   -0.1000
      4 H4        -10.2300    4.0960   63.2488 H       1  ZINC000076573199    0.0700
      5 C5        -11.1305    4.7840   61.4167 C.3     1  ZINC000076573199   -0.1500
      6 C6        -12.3369    4.4075   63.5719 C.3     1  ZINC000076573199   -0.1200
      7 C7        -12.1264    3.2152   64.5072 C.3     1  ZINC000076573199    0.1400
      8 H8        -11.3294    3.4444   65.2145 H       1  ZINC000076573199    0.1000
      9 C9        -13.4210    2.9320   65.2719 C.3     1  ZINC000076573199   -0.1700
     10 N10       -11.7565    2.0363   63.7199 N.am    1  ZINC000076573199   -0.6900
     11 C11       -12.6037    1.5550   62.7887 C.2     1  ZINC000076573199    0.5100
     12 O12       -13.6735    2.0972   62.6034 O.2     1  ZINC000076573199   -0.5100
     13 C13       -12.2258    0.3543   61.9848 C.2     1  ZINC000076573199    0.5100
     14 O14       -12.8435   -0.6824   62.1154 O.2     1  ZINC000076573199   -0.5000
     15 N15       -11.1990    0.4219   61.1144 N.am    1  ZINC000076573199   -0.6400
     16 C16       -10.8456   -0.7014   60.3624 C.ar    1  ZINC000076573199    0.1500
     17 C17        -9.5793   -1.2579   60.4963 C.ar    1  ZINC000076573199   -0.1300
     18 C18        -9.2295   -2.3690   59.7532 C.ar    1  ZINC000076573199   -0.0800
     19 C19       -10.1366   -2.9302   58.8752 C.ar    1  ZINC000076573199   -0.1200
     20 C20        -9.7507   -4.1423   58.0671 C.3     1  ZINC000076573199   -0.1100
     21 C21       -11.4044   -2.3786   58.7366 C.ar    1  ZINC000076573199    0.1600
     22 N22       -12.3223   -2.9479   57.8471 N.am    1  ZINC000076573199   -0.6700
     23 C23       -13.5170   -3.3803   58.2966 C.2     1  ZINC000076573199    0.5100
     24 C24       -14.5056   -3.9934   57.3387 C.3     1  ZINC000076573199   -0.1700
     25 O25       -13.7965   -3.2762   59.4722 O.2     1  ZINC000076573199   -0.5200
     26 C26       -11.7609   -1.2664   59.4848 C.ar    1  ZINC000076573199   -0.1400
     27 H27        -9.7145    5.5219   65.2345 H       1  ZINC000076573199    0.0600
     28 H28       -10.2106    7.2312   65.2557 H       1  ZINC000076573199    0.0500
     29 H29       -11.4371    5.9470   65.3764 H       1  ZINC000076573199    0.0500
     30 H30       -11.3855    6.9169   63.0949 H       1  ZINC000076573199    0.0600
     31 H31        -9.6629    6.4918   62.9532 H       1  ZINC000076573199    0.0600
     32 H32       -11.9562    5.4282   61.1145 H       1  ZINC000076573199    0.0600
     33 H33       -10.2049    5.1454   60.9685 H       1  ZINC000076573199    0.0600
     34 H34       -11.3230    3.7651   61.0811 H       1  ZINC000076573199    0.0500
     35 H35       -12.7338    5.2490   64.1398 H       1  ZINC000076573199    0.0800
     36 H36       -13.0422    4.1338   62.7872 H       1  ZINC000076573199    0.0700
     37 H37       -13.2710    2.0825   65.9382 H       1  ZINC000076573199    0.0600
     38 H38       -13.6963    3.8090   65.8577 H       1  ZINC000076573199    0.0700
     39 H39       -14.2181    2.7027   64.5646 H       1  ZINC000076573199    0.0600
     40 H40       -10.9019    1.6022   63.8688 H       1  ZINC000076573199    0.4100
     41 H41       -10.7055    1.2504   61.0101 H       1  ZINC000076573199    0.4200
     42 H42        -8.8679   -0.8213   61.1815 H       1  ZINC000076573199    0.1400
     43 H43        -8.2447   -2.7994   59.8586 H       1  ZINC000076573199    0.1300
     44 H44       -10.0056   -5.0451   58.6221 H       1  ZINC000076573199    0.0700
     45 H45       -10.2895   -4.1339   57.1197 H       1  ZINC000076573199    0.0600
     46 H46        -8.6779   -4.1245   57.8752 H       1  ZINC000076573199    0.0700
     47 H47       -12.0988   -3.0312   56.9068 H       1  ZINC000076573199    0.4100
     48 H48       -14.0635   -4.8756   56.8754 H       1  ZINC000076573199    0.0900
     49 H49       -15.4066   -4.2808   57.8807 H       1  ZINC000076573199    0.1000
     50 H50       -14.7617   -3.2676   56.5669 H       1  ZINC000076573199    0.0900
     51 H51       -12.7458   -0.8359   59.3789 H       1  ZINC000076573199    0.1400
@<TRIPOS>BOND
     1     1     2    1
     2     1    27    1
     3     1    28    1
     4     1    29    1
     5     2     3    1
     6     2    30    1
     7     2    31    1
     8     3     4    1
     9     3     5    1
    10     3     6    1
    11     5    32    1
    12     5    33    1
    13     5    34    1
    14     6     7    1
    15     6    35    1
    16     6    36    1
    17     7     8    1
    18     7     9    1
    19     7    10    1
    20     9    37    1
    21     9    38    1
    22     9    39    1
    23    10    11   am
    24    10    40    1
    25    11    12    2
    26    11    13    1
    27    13    14    2
    28    13    15   am
    29    15    16    1
    30    15    41    1
    31    16    26   ar
    32    16    17   ar
    33    17    18   ar
    34    17    42    1
    35    18    19   ar
    36    18    43    1
    37    19    20    1
    38    19    21   ar
    39    20    44    1
    40    20    45    1
    41    20    46    1
    42    21    22    1
    43    21    26   ar
    44    22    23   am
    45    22    47    1
    46    23    24    1
    47    23    25    2
    48    24    48    1
    49    24    49    1
    50    24    50    1
    51    26    51    1
@<TRIPOS>SUBSTRUCTURE
     1 ZINC000076573199        1 TEMP              0 ****  ****    0 ROOT


##########                                Name:    ZINC000057429281
##########                DOCK_Rotatable_Bonds:                  10
##########                         Heavy_Atoms:                  23
##########                    Molecular_Weight:             331.295
##########                DOCK_Rotatable_Bonds:                  10
##########                       Formal_Charge:          -0.0100002
##########                     HBond_Acceptors:                   9
##########                        HBond_Donors:                   5
##########                         Heavy_Atoms:                  23
##########                          Grid_Score:          -29.112206
##########                     Grid_vdw_energy:          -28.043961
##########                      Grid_es_energy:           -1.068245
##########           Internal_energy_repulsive:            8.968814

@<TRIPOS>MOLECULE
ZINC000057429281
 39 39 1 0 0
SMALL
USER_CHARGES


@<TRIPOS>ATOM
      1 C1         -9.5147    2.1935   59.3885 C.3     1  ZINC000057429281   -0.1500
      2 C2        -10.1850    0.9351   59.9434 C.3     1  ZINC000057429281   -0.0400
      3 H3         -9.9457    0.0845   59.3052 H       1  ZINC000057429281    0.0900
      4 C4        -11.7011    1.1371   59.9767 C.3     1  ZINC000057429281   -0.1300
      5 C5        -12.3625    0.1267   59.0751 C.2     1  ZINC000057429281    0.5200
      6 O6        -12.8716    0.4844   58.0341 O.2     1  ZINC000057429281   -0.5300
      7 N7        -12.3881   -1.1744   59.4257 N.am    1  ZINC000057429281   -0.7000
      8 C8        -13.0325   -2.1565   58.5501 C.3     1  ZINC000057429281    0.1100
      9 C9        -11.9832   -3.0474   57.9365 C.2     1  ZINC000057429281    0.5200
     10 N10       -10.8371   -3.2947   58.6009 N.am    1  ZINC000057429281   -0.8500
     11 O11       -12.1702   -3.5416   56.8450 O.2     1  ZINC000057429281   -0.5100
     12 C12       -13.9936   -2.9929   59.3550 C.2     1  ZINC000057429281    0.5300
     13 N13       -15.0781   -3.5309   58.7627 N.am    1  ZINC000057429281   -0.8400
     14 O14       -13.7911   -3.1819   60.5357 O.2     1  ZINC000057429281   -0.5100
     15 C15        -9.6825    0.6724   61.3397 C.ar    1  ZINC000057429281   -0.0500
     16 C16        -8.9764   -0.4839   61.6140 C.ar    1  ZINC000057429281   -0.1200
     17 C17        -8.5153   -0.7248   62.8948 C.ar    1  ZINC000057429281   -0.0700
     18 C18        -8.7600    0.1908   63.9011 C.ar    1  ZINC000057429281   -0.1900
     19 C19        -8.2578   -0.0720   65.2975 C.3     1  ZINC000057429281    0.5100
     20 F20        -6.8748    0.1341   65.3422 F       1  ZINC000057429281   -0.1800
     21 F21        -8.8884    0.7997   66.1916 F       1  ZINC000057429281   -0.1800
     22 F22        -8.5441   -1.3940   65.6548 F       1  ZINC000057429281   -0.1800
     23 C23        -9.4649    1.3477   63.6264 C.ar    1  ZINC000057429281   -0.0700
     24 C24        -9.9226    1.5905   62.3448 C.ar    1  ZINC000057429281   -0.1100
     25 H25        -8.4346    2.0496   59.3649 H       1  ZINC000057429281    0.0600
     26 H26        -9.8782    2.3835   58.3786 H       1  ZINC000057429281    0.0800
     27 H27        -9.7540    3.0441   60.0268 H       1  ZINC000057429281    0.0500
     28 H28       -12.0630    1.0059   60.9964 H       1  ZINC000057429281    0.1000
     29 H29       -11.9413    2.1431   59.6326 H       1  ZINC000057429281    0.1000
     30 H30       -11.9799   -1.4607   60.2577 H       1  ZINC000057429281    0.4200
     31 H31       -13.5757   -1.6377   57.7602 H       1  ZINC000057429281    0.1300
     32 H32       -10.1616   -3.8681   58.2061 H       1  ZINC000057429281    0.4000
     33 H33       -10.6875   -2.8992   59.4739 H       1  ZINC000057429281    0.4100
     34 H34       -15.6967   -4.0693   59.2807 H       1  ZINC000057429281    0.4000
     35 H35       -15.2399   -3.3798   57.8182 H       1  ZINC000057429281    0.4100
     36 H36        -8.7852   -1.1993   60.8278 H       1  ZINC000057429281    0.1400
     37 H37        -7.9643   -1.6285   63.1093 H       1  ZINC000057429281    0.1400
     38 H38        -9.6557    2.0634   64.4126 H       1  ZINC000057429281    0.1400
     39 H39       -10.4733    2.4944   62.1303 H       1  ZINC000057429281    0.1400
@<TRIPOS>BOND
     1     1     2    1
     2     1    25    1
     3     1    26    1
     4     1    27    1
     5     2     3    1
     6     2     4    1
     7     2    15    1
     8     4     5    1
     9     4    28    1
    10     4    29    1
    11     5     6    2
    12     5     7   am
    13     7     8    1
    14     7    30    1
    15     8     9    1
    16     8    12    1
    17     8    31    1
    18     9    10   am
    19     9    11    2
    20    10    32    1
    21    10    33    1
    22    12    13   am
    23    12    14    2
    24    13    34    1
    25    13    35    1
    26    15    24   ar
    27    15    16   ar
    28    16    17   ar
    29    16    36    1
    30    17    18   ar
    31    17    37    1
    32    18    19    1
    33    18    23   ar
    34    19    20    1
    35    19    21    1
    36    19    22    1
    37    23    24   ar
    38    23    38    1
    39    24    39    1
@<TRIPOS>SUBSTRUCTURE
     1 ZINC000057429281        1 TEMP              0 ****  ****    0 ROOT


##########                                Name:    ZINC000182378855
##########                DOCK_Rotatable_Bonds:                   8
##########                         Heavy_Atoms:                  27
##########                    Molecular_Weight:              394.83
##########                DOCK_Rotatable_Bonds:                   8
##########                       Formal_Charge:          -0.0200001
##########                     HBond_Acceptors:                   8
##########                        HBond_Donors:                   1
##########                         Heavy_Atoms:                  27
##########                          Grid_Score:          -29.084986
##########                     Grid_vdw_energy:          -29.450743
##########                      Grid_es_energy:            0.365757
##########           Internal_energy_repulsive:           15.952057

@<TRIPOS>MOLECULE
ZINC000182378855
 47 49 1 0 0
SMALL
USER_CHARGES


@<TRIPOS>ATOM
      1 C1         -8.3165    5.3259   66.2112 C.3     1  ZINC000182378855    0.0300
      2 O2         -8.4657    4.3783   65.1520 O.3     1  ZINC000182378855   -0.3900
      3 C3         -9.2991    3.2651   65.4811 C.3     1  ZINC000182378855    0.0600
      4 C4         -9.3880    2.3217   64.2799 C.3     1  ZINC000182378855    0.0700
      5 O5         -9.9740    3.0120   63.1743 O.3     1  ZINC000182378855   -0.2900
      6 C6        -10.1255    2.3125   62.0216 C.ar    1  ZINC000182378855    0.3300
      7 C7         -9.6771    1.0004   61.9511 C.ar    1  ZINC000182378855   -0.1300
      8 C8         -9.8401    0.2937   60.7580 C.ar    1  ZINC000182378855   -0.0600
      9 C9         -9.3780   -1.1087   60.6353 C.2     1  ZINC000182378855    0.5600
     10 O10        -8.8635   -1.6642   61.5857 O.2     1  ZINC000182378855   -0.5200
     11 N11        -9.5284   -1.7682   59.4697 N.am    1  ZINC000182378855   -0.7100
     12 C12        -9.0731   -3.1554   59.3488 C.3     1  ZINC000182378855    0.1200
     13 H13        -9.1146   -3.6556   60.3164 H       1  ZINC000182378855    0.1100
     14 C14        -7.6398   -3.2067   58.7738 C.3     1  ZINC000182378855   -0.1700
     15 C15        -7.7936   -3.9915   57.4521 C.3     1  ZINC000182378855    0.0400
     16 O16        -9.1760   -3.8117   57.0748 O.3     1  ZINC000182378855   -0.3600
     17 C17        -9.9232   -3.9152   58.3065 C.3     1  ZINC000182378855    0.1100
     18 H18       -10.0341   -4.9601   58.5964 H       1  ZINC000182378855    0.1000
     19 C19       -11.2743   -3.2648   58.1567 C.ar    1  ZINC000182378855   -0.0500
     20 C20       -12.0601   -3.0404   59.2715 C.ar    1  ZINC000182378855   -0.1100
     21 C21       -13.2976   -2.4387   59.1367 C.ar    1  ZINC000182378855   -0.0800
     22 C22       -13.7552   -2.0708   57.8848 C.ar    1  ZINC000182378855   -0.0700
     23 Cl23      -15.3117   -1.3212   57.7146 Cl      1  ZINC000182378855   -0.0400
     24 C24       -12.9701   -2.3007   56.7661 C.ar    1  ZINC000182378855    0.1200
     25 F25       -13.4154   -1.9416   55.5422 F       1  ZINC000182378855   -0.1200
     26 C26       -11.7293   -2.8981   56.9039 C.ar    1  ZINC000182378855   -0.1300
     27 C27       -10.4520    0.9453   59.6815 C.ar    1  ZINC000182378855   -0.1900
     28 C28       -10.8690    2.2519   59.8360 C.ar    1  ZINC000182378855    0.1400
     29 N29       -10.7032    2.8865   60.9802 N.ar    1  ZINC000182378855   -0.5200
     30 H30        -7.8715    4.8358   67.0771 H       1  ZINC000182378855    0.0400
     31 H31        -7.6703    6.1396   65.8823 H       1  ZINC000182378855    0.0900
     32 H32        -9.2940    5.7250   66.4820 H       1  ZINC000182378855    0.0400
     33 H33        -8.8740    2.7317   66.3314 H       1  ZINC000182378855    0.0600
     34 H34       -10.2968    3.6215   65.7378 H       1  ZINC000182378855    0.0700
     35 H35        -8.3878    1.9838   64.0084 H       1  ZINC000182378855    0.0800
     36 H36       -10.0045    1.4608   64.5387 H       1  ZINC000182378855    0.0800
     37 H37        -9.2093    0.5338   62.8054 H       1  ZINC000182378855    0.1600
     38 H38        -9.9380   -1.3243   58.7106 H       1  ZINC000182378855    0.4000
     39 H39        -7.2702   -2.1999   58.5795 H       1  ZINC000182378855    0.0900
     40 H40        -6.9733   -3.7343   59.4560 H       1  ZINC000182378855    0.0900
     41 H41        -7.1350   -3.5796   56.6875 H       1  ZINC000182378855    0.1000
     42 H42        -7.5760   -5.0477   57.6105 H       1  ZINC000182378855    0.0700
     43 H43       -11.7054   -3.3318   60.2491 H       1  ZINC000182378855    0.1500
     44 H44       -13.9087   -2.2599   60.0090 H       1  ZINC000182378855    0.1500
     45 H45       -11.1164   -3.0774   56.0329 H       1  ZINC000182378855    0.1500
     46 H46       -10.5964    0.4324   58.7421 H       1  ZINC000182378855    0.1400
     47 H47       -11.3420    2.7607   59.0092 H       1  ZINC000182378855    0.1700
@<TRIPOS>BOND
     1     1     2    1
     2     1    30    1
     3     1    31    1
     4     1    32    1
     5     2     3    1
     6     3     4    1
     7     3    33    1
     8     3    34    1
     9     4     5    1
    10     4    35    1
    11     4    36    1
    12     5     6    1
    13     6    29   ar
    14     6     7   ar
    15     7     8   ar
    16     7    37    1
    17     8     9    1
    18     8    27   ar
    19     9    10    2
    20     9    11   am
    21    11    12    1
    22    11    38    1
    23    12    13    1
    24    12    17    1
    25    12    14    1
    26    14    15    1
    27    14    39    1
    28    14    40    1
    29    15    16    1
    30    15    41    1
    31    15    42    1
    32    16    17    1
    33    17    18    1
    34    17    19    1
    35    19    26   ar
    36    19    20   ar
    37    20    21   ar
    38    20    43    1
    39    21    22   ar
    40    21    44    1
    41    22    23    1
    42    22    24   ar
    43    24    25    1
    44    24    26   ar
    45    26    45    1
    46    27    28   ar
    47    27    46    1
    48    28    29   ar
    49    28    47    1
@<TRIPOS>SUBSTRUCTURE
     1 ZINC000182378855        1 TEMP              0 ****  ****    0 ROOT


##########                                Name:    ZINC001579482641
##########                DOCK_Rotatable_Bonds:                   5
##########                         Heavy_Atoms:                  26
##########                    Molecular_Weight:             355.359
##########                DOCK_Rotatable_Bonds:                   5
##########                       Formal_Charge:                0.05
##########                     HBond_Acceptors:                  11
##########                        HBond_Donors:                   1
##########                         Heavy_Atoms:                  26
##########                          Grid_Score:          -29.077591
##########                     Grid_vdw_energy:          -27.877302
##########                      Grid_es_energy:           -1.200289
##########           Internal_energy_repulsive:           13.404567

@<TRIPOS>MOLECULE
ZINC001579482641
 43 46 1 0 0
SMALL
USER_CHARGES


@<TRIPOS>ATOM
      1 C1        -10.8006    3.3607   65.5213 C.3     1  ZINC001579482641    0.0300
      2 O2        -10.0740    4.2456   64.6282 O.3     1  ZINC001579482641   -0.3300
      3 C3         -9.0614    3.7055   63.9225 C.2     1  ZINC001579482641    0.5300
      4 O4         -7.9204    4.0736   64.1182 O.2     1  ZINC001579482641   -0.4900
      5 C5         -9.3387    2.6655   62.9104 C.ar    1  ZINC001579482641    0.0900
      6 C6         -9.5328    1.3439   63.3158 C.ar    1  ZINC001579482641   -0.0800
      7 C7         -9.7921    0.3741   62.3645 C.ar    1  ZINC001579482641   -0.1200
      8 C8         -9.8505    0.7544   61.0259 C.ar    1  ZINC001579482641    0.1100
      9 N9        -10.1085   -0.1862   60.0380 N.3     1  ZINC001579482641   -0.4600
     10 C10        -9.1213   -1.2948   60.0876 C.3     1  ZINC001579482641    0.0400
     11 C11        -9.8383   -2.4422   59.3328 C.3     1  ZINC001579482641   -0.1100
     12 C12       -11.3110   -2.2789   59.7740 C.3     1  ZINC001579482641   -0.0100
     13 H13       -11.5366   -2.9567   60.5972 H       1  ZINC001579482641    0.0900
     14 C14       -12.2366   -2.5401   58.6138 C.2     1  ZINC001579482641    0.1800
     15 N15       -11.9072   -2.5614   57.3510 N.2     1  ZINC001579482641   -0.2600
     16 N16       -12.9460   -2.8152   56.6369 N.2     1  ZINC001579482641   -0.2900
     17 C17       -13.9854   -2.9674   57.4116 C.2     1  ZINC001579482641    0.1500
     18 N18       -13.5638   -2.8022   58.6886 N.pl3   1  ZINC001579482641   -0.4800
     19 C19       -14.3791   -2.8822   59.9032 C.3     1  ZINC001579482641    0.0700
     20 C20       -11.4319   -0.8155   60.2381 C.3     1  ZINC001579482641    0.0600
     21 C21        -9.6452    2.1032   60.6888 C.ar    1  ZINC001579482641    0.2300
     22 C22        -9.7044    2.5232   59.2672 C.2     1  ZINC001579482641    0.2100
     23 N23        -8.8536    3.3141   58.6436 N.2     1  ZINC001579482641   -0.2600
     24 N24        -9.2497    3.4352   57.4233 N.pl3   1  ZINC001579482641   -0.2300
     25 N25       -10.3240    2.7465   57.2536 N.2     1  ZINC001579482641   -0.0500
     26 N26       -10.6303    2.1677   58.3649 N.2     1  ZINC001579482641   -0.2000
     27 N27        -9.4054    3.0010   61.6272 N.ar    1  ZINC001579482641   -0.4000
     28 H28       -10.1149    2.9484   66.2615 H       1  ZINC001579482641    0.0700
     29 H29       -11.5873    3.9208   66.0269 H       1  ZINC001579482641    0.1100
     30 H30       -11.2452    2.5487   64.9458 H       1  ZINC001579482641    0.0700
     31 H31        -9.4807    1.0813   64.3622 H       1  ZINC001579482641    0.1600
     32 H32        -9.9455   -0.6553   62.6531 H       1  ZINC001579482641    0.1600
     33 H33        -8.2009   -1.0136   59.5756 H       1  ZINC001579482641    0.1000
     34 H34        -8.9166   -1.5817   61.1191 H       1  ZINC001579482641    0.0600
     35 H35        -9.7422   -2.3138   58.2546 H       1  ZINC001579482641    0.1000
     36 H36        -9.4478   -3.4113   59.6433 H       1  ZINC001579482641    0.0800
     37 H37       -14.9937   -3.1882   57.0939 H       1  ZINC001579482641    0.2200
     38 H38       -14.3855   -3.9087   60.2696 H       1  ZINC001579482641    0.0800
     39 H39       -13.9596   -2.2266   60.6663 H       1  ZINC001579482641    0.0900
     40 H40       -15.3990   -2.5706   59.6773 H       1  ZINC001579482641    0.0900
     41 H41       -11.7035   -0.7818   61.2931 H       1  ZINC001579482641    0.0600
     42 H42       -12.1832   -0.2978   59.6418 H       1  ZINC001579482641    0.1000
     43 H43        -8.8078    3.9629   56.7397 H       1  ZINC001579482641    0.4800
@<TRIPOS>BOND
     1     1     2    1
     2     1    28    1
     3     1    29    1
     4     1    30    1
     5     2     3    1
     6     3     4    2
     7     3     5    1
     8     5    27   ar
     9     5     6   ar
    10     6     7   ar
    11     6    31    1
    12     7     8   ar
    13     7    32    1
    14     8     9    1
    15     8    21   ar
    16     9    20    1
    17     9    10    1
    18    10    11    1
    19    10    33    1
    20    10    34    1
    21    11    12    1
    22    11    35    1
    23    11    36    1
    24    12    13    1
    25    12    14    1
    26    12    20    1
    27    14    18    1
    28    14    15    2
    29    15    16    1
    30    16    17    2
    31    17    18    1
    32    17    37    1
    33    18    19    1
    34    19    38    1
    35    19    39    1
    36    19    40    1
    37    20    41    1
    38    20    42    1
    39    21    22    1
    40    21    27   ar
    41    22    26    1
    42    22    23    2
    43    23    24    1
    44    24    25    1
    45    24    43    1
    46    25    26    2
@<TRIPOS>SUBSTRUCTURE
     1 ZINC001579482641        1 TEMP              0 ****  ****    0 ROOT


##########                                Name:    ZINC000790735374
##########                DOCK_Rotatable_Bonds:                   5
##########                         Heavy_Atoms:                  25
##########                    Molecular_Weight:             353.445
##########                DOCK_Rotatable_Bonds:                   5
##########                       Formal_Charge:                   0
##########                     HBond_Acceptors:                   6
##########                        HBond_Donors:                   1
##########                         Heavy_Atoms:                  25
##########                          Grid_Score:          -29.051678
##########                     Grid_vdw_energy:          -27.636806
##########                      Grid_es_energy:           -1.414871
##########           Internal_energy_repulsive:            7.306077

@<TRIPOS>MOLECULE
ZINC000790735374
 44 47 1 0 0
SMALL
USER_CHARGES


@<TRIPOS>ATOM
      1 O1        -12.7812   -0.3625   57.9520 O.2     1  ZINC000790735374   -0.5100
      2 C2        -12.4852   -0.9704   58.9589 C.2     1  ZINC000790735374    0.5000
      3 N3        -12.1789   -0.2983   60.0863 N.am    1  ZINC000790735374   -0.7200
      4 C4        -12.1976    1.1665   60.0938 C.3     1  ZINC000790735374    0.1400
      5 C5        -11.8609    1.6737   61.4975 C.3     1  ZINC000790735374   -0.0300
      6 H6        -12.7844    1.9041   62.0287 H       1  ZINC000790735374    0.1100
      7 S7        -10.9557    0.3868   62.3989 S.3     1  ZINC000790735374   -0.2400
      8 C8        -10.3159    1.3423   63.8104 C.3     1  ZINC000790735374   -0.0800
      9 C9         -9.3571    2.3900   63.2645 C.3     1  ZINC000790735374   -0.0800
     10 C10        -9.9511    3.2392   62.1770 C.ar    1  ZINC000790735374   -0.0700
     11 C11        -9.3069    4.4656   61.9819 C.ar    1  ZINC000790735374   -0.1200
     12 C12        -9.7211    5.3491   61.0132 C.ar    1  ZINC000790735374   -0.1100
     13 C13       -10.7969    5.0224   60.2086 C.ar    1  ZINC000790735374   -0.1200
     14 C14       -11.4389    3.8202   60.3992 C.ar    1  ZINC000790735374   -0.1100
     15 C15       -11.0227    2.9234   61.3886 C.ar    1  ZINC000790735374   -0.0800
     16 C16       -12.4659   -2.4773   58.9512 C.3     1  ZINC000790735374    0.0300
     17 H17       -13.4661   -2.8774   58.7850 H       1  ZINC000790735374    0.1500
     18 C18       -11.4721   -3.0131   57.8932 C.3     1  ZINC000790735374   -0.1400
     19 C19       -10.2048   -3.2129   58.7026 C.2     1  ZINC000790735374    0.1200
     20 C20        -8.8482   -3.4048   58.1524 C.ar    1  ZINC000790735374   -0.1000
     21 C21        -7.7229   -3.2931   58.9777 C.ar    1  ZINC000790735374   -0.0400
     22 C22        -6.4738   -3.4827   58.4128 C.ar    1  ZINC000790735374   -0.1700
     23 C23        -6.3778   -3.7736   57.0641 C.ar    1  ZINC000790735374    0.1200
     24 N24        -7.4559   -3.8729   56.3100 N.ar    1  ZINC000790735374   -0.4800
     25 C25        -8.6661   -3.7065   56.8014 C.ar    1  ZINC000790735374    0.1400
     26 N26       -10.5163   -3.1862   59.9549 N.2     1  ZINC000790735374   -0.2700
     27 O27       -11.9006   -2.9925   60.1737 O.3     1  ZINC000790735374   -0.1600
     28 H28       -11.9460   -0.7845   60.8927 H       1  ZINC000790735374    0.4100
     29 H29       -11.4603    1.5430   59.3848 H       1  ZINC000790735374    0.0800
     30 H30       -13.1889    1.5187   59.8084 H       1  ZINC000790735374    0.0900
     31 H31       -11.1403    1.8310   64.3297 H       1  ZINC000790735374    0.0900
     32 H32        -9.7876    0.6796   64.4959 H       1  ZINC000790735374    0.1100
     33 H33        -9.0464    3.0388   64.0833 H       1  ZINC000790735374    0.0900
     34 H34        -8.4758    1.8843   62.8700 H       1  ZINC000790735374    0.0900
     35 H35        -8.4648    4.7245   62.6067 H       1  ZINC000790735374    0.1200
     36 H36        -9.2101    6.2915   60.8820 H       1  ZINC000790735374    0.1300
     37 H37       -11.1299    5.7034   59.4393 H       1  ZINC000790735374    0.1300
     38 H38       -12.2788    3.5635   59.7708 H       1  ZINC000790735374    0.1300
     39 H39       -11.8202   -3.9595   57.4795 H       1  ZINC000790735374    0.1200
     40 H40       -11.3149   -2.2788   57.1031 H       1  ZINC000790735374    0.1100
     41 H41        -7.8268   -3.0644   60.0281 H       1  ZINC000790735374    0.1500
     42 H42        -5.5833   -3.4039   59.0187 H       1  ZINC000790735374    0.1500
     43 H43        -5.4041   -3.9216   56.6207 H       1  ZINC000790735374    0.1600
     44 H44        -9.5246   -3.7961   56.1524 H       1  ZINC000790735374    0.1600
@<TRIPOS>BOND
     1     1     2    2
     2     2     3   am
     3     2    16    1
     4     3     4    1
     5     3    28    1
     6     4     5    1
     7     4    29    1
     8     4    30    1
     9     5     6    1
    10     5    15    1
    11     5     7    1
    12     7     8    1
    13     8     9    1
    14     8    31    1
    15     8    32    1
    16     9    10    1
    17     9    33    1
    18     9    34    1
    19    10    15   ar
    20    10    11   ar
    21    11    12   ar
    22    11    35    1
    23    12    13   ar
    24    12    36    1
    25    13    14   ar
    26    13    37    1
    27    14    15   ar
    28    14    38    1
    29    16    17    1
    30    16    27    1
    31    16    18    1
    32    18    19    1
    33    18    39    1
    34    18    40    1
    35    19    20    1
    36    19    26    2
    37    20    25   ar
    38    20    21   ar
    39    21    22   ar
    40    21    41    1
    41    22    23   ar
    42    22    42    1
    43    23    24   ar
    44    23    43    1
    45    24    25   ar
    46    25    44    1
    47    26    27    1
@<TRIPOS>SUBSTRUCTURE
     1 ZINC000790735374        1 TEMP              0 ****  ****    0 ROOT


##########                                Name:    ZINC000826435081
##########                DOCK_Rotatable_Bonds:                   7
##########                         Heavy_Atoms:                  28
##########                    Molecular_Weight:             388.361
##########                DOCK_Rotatable_Bonds:                   7
##########                       Formal_Charge:           0.0099996
##########                     HBond_Acceptors:                  12
##########                        HBond_Donors:                   3
##########                         Heavy_Atoms:                  28
##########                          Grid_Score:          -29.009909
##########                     Grid_vdw_energy:          -29.974037
##########                      Grid_es_energy:            0.964128
##########           Internal_energy_repulsive:            8.001468

@<TRIPOS>MOLECULE
ZINC000826435081
 45 48 1 0 0
SMALL
USER_CHARGES


@<TRIPOS>ATOM
      1 O1        -14.7896   -0.2081   56.4581 O.2     1  ZINC000826435081   -0.5700
      2 C2        -14.6393   -1.2930   55.9299 C.2     1  ZINC000826435081    0.7200
      3 N3        -14.9019   -1.4454   54.6168 N.am    1  ZINC000826435081   -0.7300
      4 C4        -15.3743   -0.3056   53.8271 C.3     1  ZINC000826435081    0.1500
      5 C5        -15.0352   -0.5312   52.3524 C.3     1  ZINC000826435081    0.0400
      6 H6        -15.5567   -1.4172   51.9901 H       1  ZINC000826435081    0.0800
      7 C7        -13.5243   -0.7281   52.1988 C.3     1  ZINC000826435081    0.0300
      8 O8        -13.2027   -0.8266   50.8082 O.3     1  ZINC000826435081   -0.3800
      9 C9        -13.6075    0.3136   50.0446 C.3     1  ZINC000826435081    0.0200
     10 C10       -15.1185    0.5105   50.1981 C.3     1  ZINC000826435081    0.0200
     11 O11       -15.4414    0.6083   51.5885 O.3     1  ZINC000826435081   -0.3700
     12 N12       -14.2046   -2.3417   56.6564 N.am    1  ZINC000826435081   -0.6400
     13 C13       -13.9316   -2.1832   58.0216 C.2     1  ZINC000826435081    0.3300
     14 N14       -13.0940   -1.3182   58.5434 N.2     1  ZINC000826435081   -0.2800
     15 N15       -13.1091   -1.4787   59.9349 N.pl3   1  ZINC000826435081   -0.3300
     16 C16       -12.3536   -0.7451   60.8565 C.ar    1  ZINC000826435081    0.2200
     17 C17       -12.9662    0.2066   61.6580 C.ar    1  ZINC000826435081   -0.1300
     18 C18       -12.2197    0.9308   62.5679 C.ar    1  ZINC000826435081   -0.0500
     19 C19       -10.8589    0.7131   62.6858 C.ar    1  ZINC000826435081   -0.1500
     20 C20       -10.2337   -0.2325   61.8935 C.ar    1  ZINC000826435081    0.1500
     21 F21        -8.9044   -0.4425   62.0121 F       1  ZINC000826435081   -0.1100
     22 C22       -10.9785   -0.9731   60.9766 C.ar    1  ZINC000826435081   -0.0500
     23 C23       -10.3140   -1.9890   60.1238 C.2     1  ZINC000826435081    0.2100
     24 N24       -10.6094   -3.2719   60.0516 N.2     1  ZINC000826435081   -0.2800
     25 N25        -9.8076   -3.8138   59.2006 N.pl3   1  ZINC000826435081   -0.2300
     26 N26        -9.0139   -2.9155   58.7313 N.2     1  ZINC000826435081   -0.0500
     27 N27        -9.2998   -1.7800   59.2719 N.2     1  ZINC000826435081   -0.2300
     28 C28       -13.9864   -2.4719   60.2316 C.2     1  ZINC000826435081    0.0700
     29 C29       -14.5118   -2.9188   59.0683 C.2     1  ZINC000826435081   -0.2400
     30 H30       -14.7781   -2.3100   54.1946 H       1  ZINC000826435081    0.4000
     31 H31       -16.4539   -0.2073   53.9408 H       1  ZINC000826435081    0.0800
     32 H32       -14.8878    0.6052   54.1766 H       1  ZINC000826435081    0.0900
     33 H33       -13.0000    0.1224   52.6345 H       1  ZINC000826435081    0.0700
     34 H34       -13.2225   -1.6432   52.7082 H       1  ZINC000826435081    0.1100
     35 H35       -13.0861    1.1992   50.4079 H       1  ZINC000826435081    0.0600
     36 H36       -13.3660    0.1529   48.9939 H       1  ZINC000826435081    0.1100
     37 H37       -15.4203    1.4256   49.6887 H       1  ZINC000826435081    0.1100
     38 H38       -15.6427   -0.3400   49.7624 H       1  ZINC000826435081    0.0600
     39 H39       -14.0809   -3.2062   56.2343 H       1  ZINC000826435081    0.4100
     40 H40       -14.0282    0.3821   61.5706 H       1  ZINC000826435081    0.1500
     41 H41       -12.7013    1.6709   63.1898 H       1  ZINC000826435081    0.1500
     42 H42       -10.2825    1.2838   63.3989 H       1  ZINC000826435081    0.1500
     43 H43        -9.8029   -4.7515   58.9525 H       1  ZINC000826435081    0.4800
     44 H44       -14.2256   -2.8364   61.2198 H       1  ZINC000826435081    0.1800
     45 H45       -15.2424   -3.7070   58.9622 H       1  ZINC000826435081    0.1800
@<TRIPOS>BOND
     1     1     2    2
     2     2     3   am
     3     2    12   am
     4     3     4    1
     5     3    30    1
     6     4     5    1
     7     4    31    1
     8     4    32    1
     9     5     6    1
    10     5    11    1
    11     5     7    1
    12     7     8    1
    13     7    33    1
    14     7    34    1
    15     8     9    1
    16     9    10    1
    17     9    35    1
    18     9    36    1
    19    10    11    1
    20    10    37    1
    21    10    38    1
    22    12    13    1
    23    12    39    1
    24    13    29    1
    25    13    14    2
    26    14    15    1
    27    15    16    1
    28    15    28    1
    29    16    22   ar
    30    16    17   ar
    31    17    18   ar
    32    17    40    1
    33    18    19   ar
    34    18    41    1
    35    19    20   ar
    36    19    42    1
    37    20    21    1
    38    20    22   ar
    39    22    23    1
    40    23    27    1
    41    23    24    2
    42    24    25    1
    43    25    26    1
    44    25    43    1
    45    26    27    2
    46    28    29    2
    47    28    44    1
    48    29    45    1
@<TRIPOS>SUBSTRUCTURE
     1 ZINC000826435081        1 TEMP              0 ****  ****    0 ROOT


##########                                Name:    ZINC000547864253
##########                DOCK_Rotatable_Bonds:                   6
##########                         Heavy_Atoms:                  30
##########                    Molecular_Weight:             422.548
##########                DOCK_Rotatable_Bonds:                   6
##########                       Formal_Charge:           0.0300002
##########                     HBond_Acceptors:                   6
##########                        HBond_Donors:                   2
##########                         Heavy_Atoms:                  30
##########                          Grid_Score:          -28.985464
##########                     Grid_vdw_energy:          -27.946184
##########                      Grid_es_energy:           -1.039280
##########           Internal_energy_repulsive:           22.604797

@<TRIPOS>MOLECULE
ZINC000547864253
 56 60 1 0 0
SMALL
USER_CHARGES


@<TRIPOS>ATOM
      1 O1        -15.1558    1.8402   62.0004 O.2     1  ZINC000547864253   -0.5300
      2 C2        -14.2206    1.6719   61.2469 C.2     1  ZINC000547864253    0.5400
      3 N3        -12.9579    1.7924   61.7026 N.am    1  ZINC000547864253   -0.7200
      4 C4        -12.7153    2.1326   63.1067 C.3     1  ZINC000547864253    0.1300
      5 C5        -11.3104    2.7206   63.2536 C.3     1  ZINC000547864253    0.0200
      6 H6        -11.3088    3.4626   64.0521 H       1  ZINC000547864253    0.0900
      7 C7        -10.3376    1.6197   63.5890 C.2     1  ZINC000547864253   -0.1600
      8 C8        -10.2189    0.4400   62.9597 C.2     1  ZINC000547864253    0.0600
      9 N9         -9.2288   -0.3026   63.5434 N.pl3   1  ZINC000547864253   -0.5900
     10 C10        -8.6719    0.3990   64.5892 C.ar    1  ZINC000547864253    0.1000
     11 C11        -7.6564    0.1191   65.4972 C.ar    1  ZINC000547864253   -0.1300
     12 C12        -7.3193    1.0501   66.4555 C.ar    1  ZINC000547864253   -0.1000
     13 C13        -7.9834    2.2667   66.5248 C.ar    1  ZINC000547864253   -0.1400
     14 C14        -8.9843    2.5626   65.6425 C.ar    1  ZINC000547864253   -0.0700
     15 C15        -9.3378    1.6365   64.6596 C.ar    1  ZINC000547864253   -0.1000
     16 C16       -10.9018    3.3750   61.9590 C.ar    1  ZINC000547864253   -0.0700
     17 C17       -11.1816    4.7111   61.7415 C.ar    1  ZINC000547864253   -0.1100
     18 C18       -10.8068    5.3113   60.5540 C.ar    1  ZINC000547864253   -0.1200
     19 C19       -10.1519    4.5754   59.5842 C.ar    1  ZINC000547864253   -0.1200
     20 C20        -9.8712    3.2395   59.8021 C.ar    1  ZINC000547864253   -0.1100
     21 C21       -10.2422    2.6405   60.9914 C.ar    1  ZINC000547864253   -0.1200
     22 C22       -14.4701    1.3220   59.8024 C.3     1  ZINC000547864253   -0.1700
     23 H23       -14.2778    2.1202   59.0855 H       1  ZINC000547864253    0.1400
     24 C24       -15.6200    0.3603   59.4972 C.3     1  ZINC000547864253   -0.1300
     25 C25       -14.1698   -0.1128   59.3606 C.3     1  ZINC000547864253   -0.1400
     26 C26       -13.6253   -0.3127   57.9456 C.3     1  ZINC000547864253   -0.0700
     27 C27       -14.0760   -1.6720   57.4066 C.3     1  ZINC000547864253   -0.6000
     28 S28       -13.4233   -2.9852   58.4769 S.o2    1  ZINC000547864253    2.4200
     29 O29       -14.0116   -4.2198   58.0911 O.2     1  ZINC000547864253   -0.9400
     30 O30       -12.0073   -2.8738   58.5202 O.2     1  ZINC000547864253   -0.9300
     31 C31       -14.0941   -2.5033   60.0939 C.3     1  ZINC000547864253   -0.6000
     32 C32       -13.6419   -1.0788   60.4222 C.3     1  ZINC000547864253   -0.0700
     33 H33       -12.2098    1.6539   61.1009 H       1  ZINC000547864253    0.4000
     34 H34       -13.4521    2.8653   63.4356 H       1  ZINC000547864253    0.0800
     35 H35       -12.7986    1.2339   63.7179 H       1  ZINC000547864253    0.0700
     36 H36       -10.8166    0.1236   62.1177 H       1  ZINC000547864253    0.1700
     37 H37        -8.9592   -1.1910   63.2623 H       1  ZINC000547864253    0.4200
     38 H38        -7.1339   -0.8251   65.4517 H       1  ZINC000547864253    0.1200
     39 H39        -6.5307    0.8306   67.1599 H       1  ZINC000547864253    0.1300
     40 H40        -7.7072    2.9854   67.2822 H       1  ZINC000547864253    0.1200
     41 H41        -9.4967    3.5114   65.7026 H       1  ZINC000547864253    0.1200
     42 H42       -11.6934    5.2860   62.4992 H       1  ZINC000547864253    0.1200
     43 H43       -11.0260    6.3550   60.3837 H       1  ZINC000547864253    0.1200
     44 H44        -9.8596    5.0442   58.6561 H       1  ZINC000547864253    0.1200
     45 H45        -9.3598    2.6646   59.0443 H       1  ZINC000547864253    0.1200
     46 H46       -10.0230    1.5967   61.1616 H       1  ZINC000547864253    0.1200
     47 H47       -16.1961   -0.0194   60.3411 H       1  ZINC000547864253    0.1100
     48 H48       -16.1840    0.5255   58.5792 H       1  ZINC000547864253    0.1100
     49 H49       -14.0024    0.4779   57.2968 H       1  ZINC000547864253    0.0900
     50 H50       -12.5362   -0.2742   57.9673 H       1  ZINC000547864253    0.0900
     51 H51       -15.1650   -1.7172   57.3976 H       1  ZINC000547864253    0.1400
     52 H52       -13.6968   -1.8059   56.3934 H       1  ZINC000547864253    0.1400
     53 H53       -15.1829   -2.5417   60.0625 H       1  ZINC000547864253    0.1400
     54 H54       -13.7268   -3.1874   60.8590 H       1  ZINC000547864253    0.1400
     55 H55       -12.5528   -1.0389   60.4392 H       1  ZINC000547864253    0.0900
     56 H56       -14.0301   -0.7913   61.3993 H       1  ZINC000547864253    0.0900
@<TRIPOS>BOND
     1     1     2    2
     2     2     3   am
     3     2    22    1
     4     3     4    1
     5     3    33    1
     6     4     5    1
     7     4    34    1
     8     4    35    1
     9     5     6    1
    10     5     7    1
    11     5    16    1
    12     7    15    1
    13     7     8    2
    14     8     9    1
    15     8    36    1
    16     9    10    1
    17     9    37    1
    18    10    15   ar
    19    10    11   ar
    20    11    12   ar
    21    11    38    1
    22    12    13   ar
    23    12    39    1
    24    13    14   ar
    25    13    40    1
    26    14    15   ar
    27    14    41    1
    28    16    21   ar
    29    16    17   ar
    30    17    18   ar
    31    17    42    1
    32    18    19   ar
    33    18    43    1
    34    19    20   ar
    35    19    44    1
    36    20    21   ar
    37    20    45    1
    38    21    46    1
    39    22    23    1
    40    22    25    1
    41    22    24    1
    42    24    25    1
    43    24    47    1
    44    24    48    1
    45    25    32    1
    46    25    26    1
    47    26    27    1
    48    26    49    1
    49    26    50    1
    50    27    28    1
    51    27    51    1
    52    27    52    1
    53    28    29    2
    54    28    30    2
    55    28    31    1
    56    31    32    1
    57    31    53    1
    58    31    54    1
    59    32    55    1
    60    32    56    1
@<TRIPOS>SUBSTRUCTURE
     1 ZINC000547864253        1 TEMP              0 ****  ****    0 ROOT


##########                                Name:    ZINC000492313853
##########                DOCK_Rotatable_Bonds:                   8
##########                         Heavy_Atoms:                  30
##########                    Molecular_Weight:             418.422
##########                DOCK_Rotatable_Bonds:                   8
##########                       Formal_Charge:          -0.0100008
##########                     HBond_Acceptors:                  10
##########                        HBond_Donors:                   2
##########                         Heavy_Atoms:                  30
##########                          Grid_Score:          -28.984791
##########                     Grid_vdw_energy:          -26.047573
##########                      Grid_es_energy:           -2.937218
##########           Internal_energy_repulsive:           15.207239

@<TRIPOS>MOLECULE
ZINC000492313853
 51 53 1 0 0
SMALL
USER_CHARGES


@<TRIPOS>ATOM
      1 C1         -6.6766    6.1988   66.9450 C.3     1  ZINC000492313853    0.0900
      2 N2         -7.9343    5.5976   66.4943 N.pl3   1  ZINC000492313853   -0.6200
      3 C3         -9.1105    6.4415   66.2697 C.3     1  ZINC000492313853    0.1000
      4 C4         -8.0115    4.2263   66.2797 C.ar    1  ZINC000492313853    0.4100
      5 C5         -6.8929    3.4300   66.5015 C.ar    1  ZINC000492313853   -0.2400
      6 C6         -6.9839    2.0667   66.2844 C.ar    1  ZINC000492313853   -0.0100
      7 C7         -8.1950    1.5441   65.8513 C.ar    1  ZINC000492313853   -0.2300
      8 C8         -8.3403    0.0649   65.6025 C.3     1  ZINC000492313853    0.2000
      9 N9         -7.9968   -0.2322   64.2097 N.am    1  ZINC000492313853   -0.7300
     10 C10        -8.9526   -0.2074   63.2598 C.2     1  ZINC000492313853    0.7100
     11 O11       -10.0999    0.0629   63.5587 O.2     1  ZINC000492313853   -0.5600
     12 N12        -8.6369   -0.4822   61.9787 N.am    1  ZINC000492313853   -0.6600
     13 C13        -9.6266   -0.4583   60.9957 C.2     1  ZINC000492313853    0.3300
     14 C14       -10.2258   -1.5414   60.4351 C.2     1  ZINC000492313853   -0.2600
     15 C15       -11.1611   -1.0755   59.4923 C.2     1  ZINC000492313853    0.1200
     16 C16       -12.0400   -1.9210   58.6465 C.ar    1  ZINC000492313853   -0.0100
     17 C17       -11.5009   -2.6514   57.5898 C.ar    1  ZINC000492313853   -0.0600
     18 C18       -12.3229   -3.4365   56.8065 C.ar    1  ZINC000492313853   -0.1200
     19 C19       -13.6792   -3.4989   57.0694 C.ar    1  ZINC000492313853   -0.0700
     20 C20       -14.2198   -2.7758   58.1175 C.ar    1  ZINC000492313853   -0.1900
     21 C21       -15.6986   -2.8491   58.3982 C.3     1  ZINC000492313853    0.5100
     22 F22       -16.1360   -1.6258   58.9175 F       1  ZINC000492313853   -0.1800
     23 F23       -16.3856   -3.1239   57.2109 F       1  ZINC000492313853   -0.1800
     24 F24       -15.9472   -3.8654   59.3269 F       1  ZINC000492313853   -0.1800
     25 C25       -13.4065   -1.9917   58.9101 C.ar    1  ZINC000492313853   -0.0400
     26 N26       -11.1210    0.2400   59.4907 N.2     1  ZINC000492313853   -0.2700
     27 N27       -10.1687    0.6524   60.4312 N.pl3   1  ZINC000492313853   -0.3900
     28 C28        -9.8125    2.0385   60.7446 C.3     1  ZINC000492313853    0.1000
     29 C29        -9.2651    2.3933   65.6514 C.ar    1  ZINC000492313853    0.1700
     30 N30        -9.1510    3.6892   65.8713 N.ar    1  ZINC000492313853   -0.5400
     31 H31        -6.6497    6.2109   68.0346 H       1  ZINC000492313853    0.0600
     32 H32        -5.8382    5.6135   66.5673 H       1  ZINC000492313853    0.0700
     33 H33        -6.6063    7.2193   66.5684 H       1  ZINC000492313853    0.0700
     34 H34        -8.8599    7.4797   66.4881 H       1  ZINC000492313853    0.0700
     35 H35        -9.4266    6.3551   65.2301 H       1  ZINC000492313853    0.0600
     36 H36        -9.9202    6.1179   66.9237 H       1  ZINC000492313853    0.0600
     37 H37        -5.9658    3.8699   66.8382 H       1  ZINC000492313853    0.1300
     38 H38        -6.1318    1.4235   66.4478 H       1  ZINC000492313853    0.1400
     39 H39        -7.6713   -0.4826   66.2664 H       1  ZINC000492313853    0.0800
     40 H40        -9.3699   -0.2365   65.7950 H       1  ZINC000492313853    0.0800
     41 H41        -7.0814   -0.4467   63.9711 H       1  ZINC000492313853    0.4000
     42 H42        -7.7214   -0.6967   61.7401 H       1  ZINC000492313853    0.4100
     43 H43       -10.0204   -2.5752   60.6705 H       1  ZINC000492313853    0.1800
     44 H44       -10.4419   -2.6030   57.3834 H       1  ZINC000492313853    0.1400
     45 H45       -11.9061   -4.0029   55.9868 H       1  ZINC000492313853    0.1400
     46 H46       -14.3188   -4.1143   56.4540 H       1  ZINC000492313853    0.1400
     47 H47       -13.8295   -1.4276   59.7281 H       1  ZINC000492313853    0.1400
     48 H48       -10.4514    2.4049   61.5480 H       1  ZINC000492313853    0.0800
     49 H49        -8.7702    2.0833   61.0601 H       1  ZINC000492313853    0.0800
     50 H50        -9.9511    2.6583   59.8588 H       1  ZINC000492313853    0.1000
     51 H51       -10.2092    1.9909   65.3145 H       1  ZINC000492313853    0.1600
@<TRIPOS>BOND
     1     1     2    1
     2     1    31    1
     3     1    32    1
     4     1    33    1
     5     2     3    1
     6     2     4    1
     7     3    34    1
     8     3    35    1
     9     3    36    1
    10     4    30   ar
    11     4     5   ar
    12     5     6   ar
    13     5    37    1
    14     6     7   ar
    15     6    38    1
    16     7     8    1
    17     7    29   ar
    18     8     9    1
    19     8    39    1
    20     8    40    1
    21     9    10   am
    22     9    41    1
    23    10    11    2
    24    10    12   am
    25    12    13    1
    26    12    42    1
    27    13    27    1
    28    13    14    2
    29    14    15    1
    30    14    43    1
    31    15    16    1
    32    15    26    2
    33    16    25   ar
    34    16    17   ar
    35    17    18   ar
    36    17    44    1
    37    18    19   ar
    38    18    45    1
    39    19    20   ar
    40    19    46    1
    41    20    21    1
    42    20    25   ar
    43    21    22    1
    44    21    23    1
    45    21    24    1
    46    25    47    1
    47    26    27    1
    48    27    28    1
    49    28    48    1
    50    28    49    1
    51    28    50    1
    52    29    30   ar
    53    29    51    1
@<TRIPOS>SUBSTRUCTURE
     1 ZINC000492313853        1 TEMP              0 ****  ****    0 ROOT


##########                                Name:    ZINC000805177769
##########                DOCK_Rotatable_Bonds:                  10
##########                         Heavy_Atoms:                  30
##########                    Molecular_Weight:             417.548
##########                DOCK_Rotatable_Bonds:                  10
##########                       Formal_Charge:           0.0199995
##########                     HBond_Acceptors:                   7
##########                        HBond_Donors:                   1
##########                         Heavy_Atoms:                  30
##########                          Grid_Score:          -28.974380
##########                     Grid_vdw_energy:          -28.694855
##########                      Grid_es_energy:           -0.279525
##########           Internal_energy_repulsive:           70.146500

@<TRIPOS>MOLECULE
ZINC000805177769
 65 66 1 0 0
SMALL
USER_CHARGES


@<TRIPOS>ATOM
      1 C1         -7.6705   -0.3944   65.4522 C.3     1  ZINC000805177769   -0.1200
      2 C2         -8.4686    0.1920   64.3162 C.ar    1  ZINC000805177769   -0.0800
      3 C3         -9.1158    1.4023   64.4789 C.ar    1  ZINC000805177769   -0.1200
      4 C4         -9.8480    1.9402   63.4367 C.ar    1  ZINC000805177769   -0.1100
      5 C5         -9.9324    1.2677   62.2321 C.ar    1  ZINC000805177769   -0.0900
      6 C6        -10.7309    1.8538   61.0964 C.3     1  ZINC000805177769   -0.0900
      7 C7         -9.7812    2.3034   59.9841 C.3     1  ZINC000805177769    0.1500
      8 H8         -8.8089    1.8309   60.1234 H       1  ZINC000805177769    0.1000
      9 C9         -9.6209    3.8242   60.0342 C.3     1  ZINC000805177769   -0.1700
     10 N10       -10.3321    1.9130   58.6841 N.am    1  ZINC000805177769   -0.6900
     11 C11       -11.5876    2.2708   58.3492 C.2     1  ZINC000805177769    0.5100
     12 O12       -12.2622    2.9152   59.1253 O.2     1  ZINC000805177769   -0.5100
     13 C13       -12.1489    1.8740   57.0223 C.2     1  ZINC000805177769    0.5200
     14 O14       -12.9426    0.9591   56.9482 O.2     1  ZINC000805177769   -0.5200
     15 N15       -11.7736    2.5324   55.9077 N.am    1  ZINC000805177769   -0.5900
     16 C16       -10.8248    3.6541   55.8537 C.3     1  ZINC000805177769    0.1100
     17 C17       -10.6849    4.0651   54.3728 C.3     1  ZINC000805177769   -0.1500
     18 C18       -11.1281    2.7862   53.6140 C.3     1  ZINC000805177769    0.1500
     19 H19       -10.3069    2.0737   53.5363 H       1  ZINC000805177769    0.1200
     20 N20       -11.6581    3.1189   52.2894 N.am    1  ZINC000805177769   -0.5900
     21 C21       -11.2923    4.3857   51.6509 C.3     1  ZINC000805177769    0.0800
     22 C22       -12.4826    2.2596   51.6582 C.2     1  ZINC000805177769    0.6600
     23 O23       -12.9236    2.5362   50.5602 O.2     1  ZINC000805177769   -0.5600
     24 O24       -12.8177    1.0947   52.2443 O.3     1  ZINC000805177769   -0.3600
     25 C25       -13.9378    0.3679   51.6737 C.3     1  ZINC000805177769    0.1400
     26 C26       -13.5617   -0.1353   50.2785 C.3     1  ZINC000805177769   -0.1800
     27 C27       -14.2824   -0.8234   52.5697 C.3     1  ZINC000805177769   -0.1400
     28 C28       -15.1494    1.2966   51.5714 C.3     1  ZINC000805177769   -0.1800
     29 C29       -12.2416    2.2428   54.5401 C.3     1  ZINC000805177769    0.0900
     30 C30        -9.2838    0.0577   62.0690 C.ar    1  ZINC000805177769   -0.0800
     31 C31        -9.3755   -0.6753   60.7555 C.3     1  ZINC000805177769   -0.1200
     32 C32        -8.5487   -0.4782   63.1096 C.ar    1  ZINC000805177769   -0.1200
     33 H33        -6.6416   -0.0391   65.3947 H       1  ZINC000805177769    0.0700
     34 H34        -8.1088   -0.0860   66.4014 H       1  ZINC000805177769    0.0700
     35 H35        -7.6838   -1.4820   65.3822 H       1  ZINC000805177769    0.0700
     36 H36        -9.0498    1.9277   65.4201 H       1  ZINC000805177769    0.1200
     37 H37       -10.3543    2.8856   63.5640 H       1  ZINC000805177769    0.1200
     38 H38       -11.4156    1.1005   60.7069 H       1  ZINC000805177769    0.0800
     39 H39       -11.3001    2.7108   61.4566 H       1  ZINC000805177769    0.0900
     40 H40       -10.5932    4.2968   59.8950 H       1  ZINC000805177769    0.0600
     41 H41        -9.2109    4.1146   61.0015 H       1  ZINC000805177769    0.0700
     42 H42        -8.9443    4.1445   59.2419 H       1  ZINC000805177769    0.0600
     43 H43        -9.7933    1.3969   58.0642 H       1  ZINC000805177769    0.4100
     44 H44       -11.2078    4.4921   56.4363 H       1  ZINC000805177769    0.0900
     45 H45        -9.8569    3.3401   56.2443 H       1  ZINC000805177769    0.0900
     46 H46       -11.3458    4.9001   54.1402 H       1  ZINC000805177769    0.0900
     47 H47        -9.6501    4.3138   54.1376 H       1  ZINC000805177769    0.0900
     48 H48       -10.3913    4.2448   51.0539 H       1  ZINC000805177769    0.0600
     49 H49       -12.1069    4.7164   51.0066 H       1  ZINC000805177769    0.0800
     50 H50       -11.1065    5.1384   52.4171 H       1  ZINC000805177769    0.0800
     51 H51       -12.6984   -0.7968   50.3513 H       1  ZINC000805177769    0.0600
     52 H52       -14.4024   -0.6808   49.8502 H       1  ZINC000805177769    0.0700
     53 H53       -13.3161    0.7135   49.6402 H       1  ZINC000805177769    0.0900
     54 H54       -14.5503   -0.4649   53.5636 H       1  ZINC000805177769    0.0700
     55 H55       -15.1231   -1.3689   52.1413 H       1  ZINC000805177769    0.0800
     56 H56       -13.4191   -1.4850   52.6425 H       1  ZINC000805177769    0.0700
     57 H57       -14.9039    2.1452   50.9330 H       1  ZINC000805177769    0.0900
     58 H58       -15.9902    0.7510   51.1432 H       1  ZINC000805177769    0.0700
     59 H59       -15.4173    1.6550   52.5653 H       1  ZINC000805177769    0.0600
     60 H60       -12.3640    1.1693   54.3967 H       1  ZINC000805177769    0.0900
     61 H61       -13.1811    2.7614   54.3485 H       1  ZINC000805177769    0.0800
     62 H62        -8.5603   -0.3583   60.1049 H       1  ZINC000805177769    0.0700
     63 H63        -9.3029   -1.7484   60.9323 H       1  ZINC000805177769    0.0700
     64 H64       -10.3294   -0.4493   60.2790 H       1  ZINC000805177769    0.0700
     65 H65        -8.0421   -1.4234   62.9823 H       1  ZINC000805177769    0.1200
@<TRIPOS>BOND
     1     1     2    1
     2     1    33    1
     3     1    34    1
     4     1    35    1
     5     2    32   ar
     6     2     3   ar
     7     3     4   ar
     8     3    36    1
     9     4     5   ar
    10     4    37    1
    11     5     6    1
    12     5    30   ar
    13     6     7    1
    14     6    38    1
    15     6    39    1
    16     7     8    1
    17     7     9    1
    18     7    10    1
    19     9    40    1
    20     9    41    1
    21     9    42    1
    22    10    11   am
    23    10    43    1
    24    11    12    2
    25    11    13    1
    26    13    14    2
    27    13    15   am
    28    15    29    1
    29    15    16    1
    30    16    17    1
    31    16    44    1
    32    16    45    1
    33    17    18    1
    34    17    46    1
    35    17    47    1
    36    18    19    1
    37    18    20    1
    38    18    29    1
    39    20    21    1
    40    20    22   am
    41    21    48    1
    42    21    49    1
    43    21    50    1
    44    22    23    2
    45    22    24    1
    46    24    25    1
    47    25    26    1
    48    25    27    1
    49    25    28    1
    50    26    51    1
    51    26    52    1
    52    26    53    1
    53    27    54    1
    54    27    55    1
    55    27    56    1
    56    28    57    1
    57    28    58    1
    58    28    59    1
    59    29    60    1
    60    29    61    1
    61    30    31    1
    62    30    32   ar
    63    31    62    1
    64    31    63    1
    65    31    64    1
    66    32    65    1
@<TRIPOS>SUBSTRUCTURE
     1 ZINC000805177769        1 TEMP              0 ****  ****    0 ROOT


##########                                Name:    ZINC000766421809
##########                DOCK_Rotatable_Bonds:                   7
##########                         Heavy_Atoms:                  26
##########                    Molecular_Weight:             358.372
##########                DOCK_Rotatable_Bonds:                   7
##########                       Formal_Charge:         4.61936e-07
##########                     HBond_Acceptors:                   8
##########                        HBond_Donors:                   0
##########                         Heavy_Atoms:                  26
##########                          Grid_Score:          -28.968378
##########                     Grid_vdw_energy:          -29.146284
##########                      Grid_es_energy:            0.177907
##########           Internal_energy_repulsive:            6.693421

@<TRIPOS>MOLECULE
ZINC000766421809
 45 47 1 0 0
SMALL
USER_CHARGES


@<TRIPOS>ATOM
      1 C1        -15.8227   -0.5087   53.2363 C.3     1  ZINC000766421809   -0.0700
      2 C2        -15.0474   -0.3695   54.5211 C.2     1  ZINC000766421809    0.0700
      3 N3        -14.5072    0.7321   54.9756 N.2     1  ZINC000766421809   -0.2900
      4 N4        -13.8795    0.4415   56.1937 N.pl3   1  ZINC000766421809   -0.3700
      5 C5        -13.1529    1.3935   57.0376 C.3     1  ZINC000766421809    0.1000
      6 C6        -14.0620   -0.8703   56.4526 C.2     1  ZINC000766421809    0.0700
      7 C7        -13.5557   -1.6166   57.6599 C.3     1  ZINC000766421809    0.1400
      8 O8        -12.2372   -2.1553   57.3781 O.3     1  ZINC000766421809   -0.3400
      9 C9        -11.6413   -2.8522   58.3584 C.2     1  ZINC000766421809    0.4700
     10 O10       -12.2026   -3.0062   59.4173 O.2     1  ZINC000766421809   -0.5000
     11 C11       -10.2724   -3.4426   58.1383 C.3     1  ZINC000766421809   -0.1100
     12 C12        -9.4923   -3.4262   59.4545 C.3     1  ZINC000766421809   -0.0200
     13 C13        -9.4695   -2.0246   60.0076 C.2     1  ZINC000766421809    0.1900
     14 N14        -9.3108   -1.6863   61.2629 N.2     1  ZINC000766421809   -0.4700
     15 C15        -9.3588   -0.3350   61.2837 C.2     1  ZINC000766421809    0.2200
     16 C16        -9.2277    0.5329   62.4801 C.ar    1  ZINC000766421809   -0.0300
     17 C17        -9.8547    1.7768   62.5130 C.ar    1  ZINC000766421809   -0.0500
     18 C18        -9.7306    2.5805   63.6276 C.ar    1  ZINC000766421809   -0.1500
     19 C19        -8.9834    2.1523   64.7130 C.ar    1  ZINC000766421809    0.1200
     20 F20        -8.8640    2.9426   65.8023 F       1  ZINC000766421809   -0.1300
     21 C21        -8.3586    0.9157   64.6846 C.ar    1  ZINC000766421809   -0.1200
     22 C22        -7.5479    0.4550   65.8686 C.3     1  ZINC000766421809   -0.1200
     23 C23        -8.4818    0.1037   63.5764 C.ar    1  ZINC000766421809   -0.0600
     24 N24        -9.5421    0.0637   60.0517 N.2     1  ZINC000766421809   -0.3700
     25 O25        -9.6016   -0.8930   59.3085 O.3     1  ZINC000766421809    0.0900
     26 C26       -14.7861   -1.3943   55.4365 C.2     1  ZINC000766421809   -0.2400
     27 H27       -16.8787   -0.3171   53.4267 H       1  ZINC000766421809    0.0800
     28 H28       -15.4489    0.2096   52.5067 H       1  ZINC000766421809    0.0700
     29 H29       -15.7013   -1.5193   52.8464 H       1  ZINC000766421809    0.0800
     30 H30       -13.8428    1.8499   57.7474 H       1  ZINC000766421809    0.0800
     31 H31       -12.3658    0.8704   57.5809 H       1  ZINC000766421809    0.0900
     32 H32       -12.7095    2.1685   56.4124 H       1  ZINC000766421809    0.0900
     33 H33       -13.4963   -0.9360   58.5092 H       1  ZINC000766421809    0.0900
     34 H34       -14.2389   -2.4326   57.8954 H       1  ZINC000766421809    0.0900
     35 H35       -10.3716   -4.4698   57.7876 H       1  ZINC000766421809    0.1200
     36 H36        -9.7385   -2.8539   57.3923 H       1  ZINC000766421809    0.1200
     37 H37        -9.9742   -4.0917   60.1707 H       1  ZINC000766421809    0.1200
     38 H38        -8.4712   -3.7630   59.2758 H       1  ZINC000766421809    0.1200
     39 H39       -10.4368    2.1115   61.6670 H       1  ZINC000766421809    0.1500
     40 H40       -10.2162    3.5447   63.6539 H       1  ZINC000766421809    0.1500
     41 H41        -8.1914   -0.0893   66.5598 H       1  ZINC000766421809    0.0800
     42 H42        -6.7457   -0.1993   65.5273 H       1  ZINC000766421809    0.0800
     43 H43        -7.1204    1.3203   66.3750 H       1  ZINC000766421809    0.0700
     44 H44        -7.9944   -0.8599   63.5551 H       1  ZINC000766421809    0.1400
     45 H45       -15.1011   -2.4233   55.3455 H       1  ZINC000766421809    0.1500
@<TRIPOS>BOND
     1     1     2    1
     2     1    27    1
     3     1    28    1
     4     1    29    1
     5     2    26    1
     6     2     3    2
     7     3     4    1
     8     4     5    1
     9     4     6    1
    10     5    30    1
    11     5    31    1
    12     5    32    1
    13     6     7    1
    14     6    26    2
    15     7     8    1
    16     7    33    1
    17     7    34    1
    18     8     9    1
    19     9    10    2
    20     9    11    1
    21    11    12    1
    22    11    35    1
    23    11    36    1
    24    12    13    1
    25    12    37    1
    26    12    38    1
    27    13    25    1
    28    13    14    2
    29    14    15    1
    30    15    16    1
    31    15    24    2
    32    16    23   ar
    33    16    17   ar
    34    17    18   ar
    35    17    39    1
    36    18    19   ar
    37    18    40    1
    38    19    20    1
    39    19    21   ar
    40    21    22    1
    41    21    23   ar
    42    22    41    1
    43    22    42    1
    44    22    43    1
    45    23    44    1
    46    24    25    1
    47    26    45    1
@<TRIPOS>SUBSTRUCTURE
     1 ZINC000766421809        1 TEMP              0 ****  ****    0 ROOT


##########                                Name:    ZINC000549659617
##########                DOCK_Rotatable_Bonds:                   9
##########                         Heavy_Atoms:                  28
##########                    Molecular_Weight:              418.48
##########                DOCK_Rotatable_Bonds:                   9
##########                       Formal_Charge:          0.00999956
##########                     HBond_Acceptors:                   9
##########                        HBond_Donors:                   1
##########                         Heavy_Atoms:                  28
##########                          Grid_Score:          -28.949503
##########                     Grid_vdw_energy:          -28.673075
##########                      Grid_es_energy:           -0.276429
##########           Internal_energy_repulsive:           33.743313

@<TRIPOS>MOLECULE
ZINC000549659617
 53 55 1 0 0
SMALL
USER_CHARGES


@<TRIPOS>ATOM
      1 C1         -9.5524   -3.3844   59.2006 C.3     1  ZINC000549659617   -0.1500
      2 C2        -10.4808   -2.1837   59.0069 C.3     1  ZINC000549659617   -0.1500
      3 C3        -11.7196   -2.3495   59.8893 C.3     1  ZINC000549659617    0.1100
      4 N4        -12.7425   -1.3833   59.4813 N.am    1  ZINC000549659617   -0.6100
      5 C5        -12.6932   -0.1163   59.9383 C.2     1  ZINC000549659617    0.7100
      6 O6        -13.5412    0.6860   59.5986 O.2     1  ZINC000549659617   -0.5700
      7 N7        -11.7038    0.2613   60.7721 N.am    1  ZINC000549659617   -0.7400
      8 C8        -11.6493    1.6389   61.2675 C.3     1  ZINC000549659617    0.2300
      9 H9        -12.6624    2.0093   61.4238 H       1  ZINC000549659617    0.1100
     10 C10       -10.8948    1.6742   62.5716 C.ar    1  ZINC000549659617   -0.0900
     11 C11       -11.1653    2.6620   63.4998 C.ar    1  ZINC000549659617   -0.0800
     12 C12       -10.4732    2.6944   64.6963 C.ar    1  ZINC000549659617   -0.1100
     13 C13        -9.5112    1.7388   64.9643 C.ar    1  ZINC000549659617   -0.0700
     14 C14        -9.2413    0.7502   64.0361 C.ar    1  ZINC000549659617   -0.1800
     15 C15        -8.1922   -0.2914   64.3281 C.3     1  ZINC000549659617    0.5100
     16 F16        -7.2602    0.2266   65.2339 F       1  ZINC000549659617   -0.1800
     17 F17        -8.8003   -1.4236   64.8809 F       1  ZINC000549659617   -0.1700
     18 F18        -7.5421   -0.6441   63.1407 F       1  ZINC000549659617   -0.1700
     19 C19        -9.9363    0.7153   62.8419 C.ar    1  ZINC000549659617   -0.0500
     20 C20       -10.9360    2.5219   60.2416 C.3     1  ZINC000549659617   -0.1700
     21 C21        -9.8701    3.4887   60.7612 C.3     1  ZINC000549659617   -0.1700
     22 C22        -9.4552    2.2423   59.9768 C.3     1  ZINC000549659617   -0.1800
     23 C23       -13.8189   -1.7942   58.5765 C.3     1  ZINC000549659617    0.1700
     24 H24       -14.7854   -1.6637   59.0631 H       1  ZINC000549659617    0.1100
     25 C25       -13.6297   -3.2651   58.1662 C.3     1  ZINC000549659617   -0.1400
     26 C26       -14.5553   -3.5681   56.9712 C.3     1  ZINC000549659617   -0.5900
     27 S27       -14.7600   -1.9674   56.1099 S.o2    1  ZINC000549659617    2.3900
     28 O28       -14.1032   -2.0227   54.8509 O.2     1  ZINC000549659617   -0.9300
     29 O29       -16.1210   -1.5651   56.1808 O.2     1  ZINC000549659617   -0.9400
     30 C30       -13.7641   -0.9582   57.2719 C.3     1  ZINC000549659617   -0.6100
     31 H31        -8.6698   -3.2664   58.5719 H       1  ZINC000549659617    0.0600
     32 H32        -9.2487   -3.4439   60.2457 H       1  ZINC000549659617    0.0600
     33 H33       -10.0773   -4.2982   58.9222 H       1  ZINC000549659617    0.0600
     34 H34        -9.9559   -1.2699   59.2853 H       1  ZINC000549659617    0.0700
     35 H35       -10.7845   -2.1243   57.9617 H       1  ZINC000549659617    0.0700
     36 H36       -12.1110   -3.3609   59.7799 H       1  ZINC000549659617    0.0800
     37 H37       -11.4498   -2.1748   60.9309 H       1  ZINC000549659617    0.0900
     38 H38       -11.0280   -0.3791   61.0441 H       1  ZINC000549659617    0.4000
     39 H39       -11.9169    3.4087   63.2904 H       1  ZINC000549659617    0.1300
     40 H40       -10.6839    3.4666   65.4212 H       1  ZINC000549659617    0.1400
     41 H41        -8.9701    1.7645   65.8985 H       1  ZINC000549659617    0.1400
     42 H42        -9.7255   -0.0569   62.1169 H       1  ZINC000549659617    0.1400
     43 H43       -11.5449    2.8492   59.3988 H       1  ZINC000549659617    0.1100
     44 H44        -9.7777    4.4525   60.2603 H       1  ZINC000549659617    0.0900
     45 H45        -9.6770    3.4958   61.8339 H       1  ZINC000549659617    0.0900
     46 H46        -8.9893    1.4293   60.5336 H       1  ZINC000549659617    0.1200
     47 H47        -9.0899    2.3859   58.9600 H       1  ZINC000549659617    0.0900
     48 H48       -12.5922   -3.4348   57.8784 H       1  ZINC000549659617    0.1100
     49 H49       -13.8869   -3.9149   59.0028 H       1  ZINC000549659617    0.0900
     50 H50       -14.0909   -4.2980   56.3081 H       1  ZINC000549659617    0.1400
     51 H51       -15.5197   -3.9347   57.3228 H       1  ZINC000549659617    0.1400
     52 H52       -14.2176    0.0219   57.4198 H       1  ZINC000549659617    0.1400
     53 H53       -12.7376   -0.8612   56.9182 H       1  ZINC000549659617    0.1600
@<TRIPOS>BOND
     1     1     2    1
     2     1    31    1
     3     1    32    1
     4     1    33    1
     5     2     3    1
     6     2    34    1
     7     2    35    1
     8     3     4    1
     9     3    36    1
    10     3    37    1
    11     4     5   am
    12     4    23    1
    13     5     6    2
    14     5     7   am
    15     7     8    1
    16     7    38    1
    17     8     9    1
    18     8    10    1
    19     8    20    1
    20    10    19   ar
    21    10    11   ar
    22    11    12   ar
    23    11    39    1
    24    12    13   ar
    25    12    40    1
    26    13    14   ar
    27    13    41    1
    28    14    15    1
    29    14    19   ar
    30    15    16    1
    31    15    17    1
    32    15    18    1
    33    19    42    1
    34    20    22    1
    35    20    21    1
    36    20    43    1
    37    21    22    1
    38    21    44    1
    39    21    45    1
    40    22    46    1
    41    22    47    1
    42    23    24    1
    43    23    30    1
    44    23    25    1
    45    25    26    1
    46    25    48    1
    47    25    49    1
    48    26    27    1
    49    26    50    1
    50    26    51    1
    51    27    28    2
    52    27    29    2
    53    27    30    1
    54    30    52    1
    55    30    53    1
@<TRIPOS>SUBSTRUCTURE
     1 ZINC000549659617        1 TEMP              0 ****  ****    0 ROOT


##########                                Name:    ZINC000561219098
##########                DOCK_Rotatable_Bonds:                   4
##########                         Heavy_Atoms:                  28
##########                    Molecular_Weight:             423.273
##########                DOCK_Rotatable_Bonds:                   4
##########                       Formal_Charge:          0.00999953
##########                     HBond_Acceptors:                   9
##########                        HBond_Donors:                   1
##########                         Heavy_Atoms:                  28
##########                          Grid_Score:          -28.947412
##########                     Grid_vdw_energy:          -28.734457
##########                      Grid_es_energy:           -0.212955
##########           Internal_energy_repulsive:           21.014309

@<TRIPOS>MOLECULE
ZINC000561219098
 45 48 1 0 0
SMALL
USER_CHARGES


@<TRIPOS>ATOM
      1 C1         -5.6942   -4.0484   56.3802 C.3     1  ZINC000561219098    0.0700
      2 N2         -6.9359   -3.8767   57.1383 N.pl3   1  ZINC000561219098   -0.4500
      3 C3         -7.0269   -3.7608   58.4944 C.2     1  ZINC000561219098   -0.0100
      4 C4         -8.3241   -3.6181   58.8251 C.2     1  ZINC000561219098   -0.1700
      5 C5         -9.0728   -3.6465   57.6216 C.2     1  ZINC000561219098   -0.1100
      6 C6        -10.5477   -3.5232   57.4968 C.2     1  ZINC000561219098    0.1600
      7 N7        -11.2429   -3.6891   56.3906 N.2     1  ZINC000561219098   -0.2700
      8 N8        -12.5987   -3.4903   56.6784 N.pl3   1  ZINC000561219098   -0.4700
      9 C9        -12.7075   -3.1950   58.0090 C.2     1  ZINC000561219098    0.0300
     10 C10       -13.9527   -2.9124   58.7414 C.2     1  ZINC000561219098    0.5900
     11 O11       -14.8361   -3.7474   58.7839 O.2     1  ZINC000561219098   -0.5000
     12 N12       -14.1140   -1.7285   59.3647 N.am    1  ZINC000561219098   -0.6100
     13 C13       -15.3497   -1.4231   60.1029 C.3     1  ZINC000561219098    0.0500
     14 C14       -15.8699   -0.0601   59.6322 C.3     1  ZINC000561219098    0.0500
     15 O15       -14.8185    0.9038   59.7282 O.3     1  ZINC000561219098   -0.3700
     16 C16       -13.6911    0.6250   58.8944 C.3     1  ZINC000561219098    0.1200
     17 H17       -14.0151    0.5526   57.8562 H       1  ZINC000561219098    0.0900
     18 C18       -12.6787    1.7330   59.0298 C.ar    1  ZINC000561219098   -0.0500
     19 C19       -11.5895    1.5750   59.8654 C.ar    1  ZINC000561219098   -0.1000
     20 C20       -10.6590    2.5926   59.9896 C.ar    1  ZINC000561219098    0.1200
     21 F21        -9.5938    2.4383   60.8061 F       1  ZINC000561219098   -0.1200
     22 C22       -10.8206    3.7690   59.2760 C.ar    1  ZINC000561219098   -0.0600
     23 Cl23       -9.6544    5.0457   59.4304 Cl      1  ZINC000561219098   -0.0300
     24 C24       -11.9113    3.9257   58.4401 C.ar    1  ZINC000561219098   -0.0700
     25 C25       -12.8374    2.9060   58.3130 C.ar    1  ZINC000561219098   -0.0300
     26 Cl26      -14.2060    3.1028   57.2633 Cl      1  ZINC000561219098   -0.0400
     27 C27       -13.0570   -0.7051   59.3322 C.3     1  ZINC000561219098    0.0900
     28 C28       -11.4353   -3.2167   58.5383 C.2     1  ZINC000561219098   -0.1700
     29 C29        -8.1862   -3.8011   56.6026 C.2     1  ZINC000561219098    0.0300
     30 H30        -5.2917   -3.0706   56.1157 H       1  ZINC000561219098    0.0800
     31 H31        -4.9684   -4.5876   56.9891 H       1  ZINC000561219098    0.0900
     32 H32        -5.8985   -4.6151   55.4717 H       1  ZINC000561219098    0.0900
     33 H33        -6.1978   -3.7802   59.1862 H       1  ZINC000561219098    0.1700
     34 H34        -8.7210   -3.5032   59.8230 H       1  ZINC000561219098    0.1400
     35 H35       -13.3313   -3.5506   56.0456 H       1  ZINC000561219098    0.4400
     36 H36       -16.0969   -2.1908   59.9015 H       1  ZINC000561219098    0.1000
     37 H37       -15.1392   -1.3865   61.1718 H       1  ZINC000561219098    0.0900
     38 H38       -16.2019   -0.1350   58.5966 H       1  ZINC000561219098    0.0700
     39 H39       -16.7048    0.2481   60.2615 H       1  ZINC000561219098    0.1200
     40 H40       -11.4643    0.6578   60.4217 H       1  ZINC000561219098    0.1600
     41 H41       -12.0381    4.8427   57.8838 H       1  ZINC000561219098    0.1600
     42 H42       -12.6161   -0.5932   60.3227 H       1  ZINC000561219098    0.0900
     43 H43       -12.2871   -0.9973   58.6180 H       1  ZINC000561219098    0.1100
     44 H44       -11.1694   -3.0253   59.5674 H       1  ZINC000561219098    0.1600
     45 H45        -8.4310   -3.8610   55.5524 H       1  ZINC000561219098    0.1700
@<TRIPOS>BOND
     1     1     2    1
     2     1    30    1
     3     1    31    1
     4     1    32    1
     5     2    29    1
     6     2     3    1
     7     3     4    2
     8     3    33    1
     9     4     5    1
    10     4    34    1
    11     5     6    1
    12     5    29    2
    13     6    28    1
    14     6     7    2
    15     7     8    1
    16     8     9    1
    17     8    35    1
    18     9    10    1
    19     9    28    2
    20    10    11    2
    21    10    12   am
    22    12    27    1
    23    12    13    1
    24    13    14    1
    25    13    36    1
    26    13    37    1
    27    14    15    1
    28    14    38    1
    29    14    39    1
    30    15    16    1
    31    16    17    1
    32    16    18    1
    33    16    27    1
    34    18    25   ar
    35    18    19   ar
    36    19    20   ar
    37    19    40    1
    38    20    21    1
    39    20    22   ar
    40    22    23    1
    41    22    24   ar
    42    24    25   ar
    43    24    41    1
    44    25    26    1
    45    27    42    1
    46    27    43    1
    47    28    44    1
    48    29    45    1
@<TRIPOS>SUBSTRUCTURE
     1 ZINC000561219098        1 TEMP              0 ****  ****    0 ROOT


##########                                Name:    ZINC001085817863
##########                DOCK_Rotatable_Bonds:                   7
##########                         Heavy_Atoms:                  24
##########                    Molecular_Weight:             326.442
##########                DOCK_Rotatable_Bonds:                   7
##########                       Formal_Charge:           0.0299998
##########                     HBond_Acceptors:                   5
##########                        HBond_Donors:                   0
##########                         Heavy_Atoms:                  24
##########                          Grid_Score:          -28.907164
##########                     Grid_vdw_energy:          -26.928900
##########                      Grid_es_energy:           -1.978264
##########           Internal_energy_repulsive:           18.271559

@<TRIPOS>MOLECULE
ZINC001085817863
 50 52 1 0 0
SMALL
USER_CHARGES


@<TRIPOS>ATOM
      1 C1        -11.4941    4.0391   60.0014 C.3     1  ZINC001085817863   -0.1400
      2 C2        -11.9870    3.3870   61.2948 C.3     1  ZINC001085817863   -0.0700
      3 C3        -11.3992    2.0047   61.4161 C.2     1  ZINC001085817863    0.1100
      4 C4        -12.0298    0.8357   61.0899 C.2     1  ZINC001085817863   -0.2400
      5 C5        -13.3949    0.6848   60.5589 C.2     1  ZINC001085817863    0.6000
      6 O6        -14.3497    1.0292   61.2289 O.2     1  ZINC001085817863   -0.5300
      7 N7        -13.5864    0.1650   59.3301 N.am    1  ZINC001085817863   -0.6100
      8 C8        -14.9445    0.0149   58.8018 C.3     1  ZINC001085817863    0.0800
      9 C9        -12.4364   -0.2498   58.5230 C.3     1  ZINC001085817863    0.1300
     10 C10       -12.4781   -1.7652   58.3166 C.3     1  ZINC001085817863    0.0100
     11 H11       -12.8121   -2.3024   59.2043 H       1  ZINC001085817863    0.0800
     12 C12       -13.2094   -2.1881   57.0348 C.3     1  ZINC001085817863   -0.1400
     13 C13       -12.0877   -3.2322   56.9449 C.3     1  ZINC001085817863    0.0000
     14 N14       -11.2408   -2.3126   57.7296 N.3     1  ZINC001085817863   -0.4400
     15 C15       -10.4587   -3.0451   58.7344 C.3     1  ZINC001085817863    0.0700
     16 C16        -9.0783   -3.3182   58.1952 C.ar    1  ZINC001085817863   -0.1300
     17 C17        -8.9104   -3.7945   56.9041 C.ar    1  ZINC001085817863   -0.0700
     18 C18        -7.6217   -4.0311   56.4503 C.ar    1  ZINC001085817863   -0.1700
     19 C19        -6.5550   -3.7859   57.2938 C.ar    1  ZINC001085817863    0.1000
     20 N20        -6.7522   -3.3327   58.5165 N.ar    1  ZINC001085817863   -0.4800
     21 C21        -7.9630   -3.0915   58.9798 C.ar    1  ZINC001085817863    0.1200
     22 C22       -11.0711   -0.2373   61.3752 C.2     1  ZINC001085817863   -0.1900
     23 C23        -9.9609    0.3615   61.8416 C.2     1  ZINC001085817863   -0.0200
     24 N24       -10.1618    1.7110   61.8587 N.pl3   1  ZINC001085817863   -0.4400
     25 C25        -9.1759    2.6986   62.3047 C.3     1  ZINC001085817863    0.0600
     26 H26       -11.9193    5.0389   59.9135 H       1  ZINC001085817863    0.0600
     27 H27       -10.4065    4.1072   60.0204 H       1  ZINC001085817863    0.0500
     28 H28       -11.8055    3.4357   59.1487 H       1  ZINC001085817863    0.0600
     29 H29       -11.6757    3.9904   62.1474 H       1  ZINC001085817863    0.0600
     30 H30       -13.0747    3.3189   61.2757 H       1  ZINC001085817863    0.1100
     31 H31       -15.4342    0.9883   58.7763 H       1  ZINC001085817863    0.0700
     32 H32       -14.8987   -0.3954   57.7931 H       1  ZINC001085817863    0.0700
     33 H33       -15.5113   -0.6601   59.4432 H       1  ZINC001085817863    0.0600
     34 H34       -12.4728    0.2498   57.5550 H       1  ZINC001085817863    0.0800
     35 H35       -11.5145    0.0215   59.0374 H       1  ZINC001085817863    0.1000
     36 H36       -14.1997   -2.6105   57.2046 H       1  ZINC001085817863    0.0800
     37 H37       -13.1880   -1.4407   56.2416 H       1  ZINC001085817863    0.1000
     38 H38       -12.3166   -4.1615   57.4665 H       1  ZINC001085817863    0.0700
     39 H39       -11.7270   -3.3958   55.9294 H       1  ZINC001085817863    0.0800
     40 H40       -10.3824   -2.4468   59.6423 H       1  ZINC001085817863    0.0900
     41 H41       -10.9532   -3.9894   58.9620 H       1  ZINC001085817863    0.0500
     42 H42        -9.7632   -3.9773   56.2672 H       1  ZINC001085817863    0.1300
     43 H43        -7.4537   -4.4026   55.4501 H       1  ZINC001085817863    0.1300
     44 H44        -5.5482   -3.9679   56.9479 H       1  ZINC001085817863    0.1600
     45 H45        -8.0852   -2.7207   59.9867 H       1  ZINC001085817863    0.1500
     46 H46       -11.2261   -1.2973   61.2382 H       1  ZINC001085817863    0.1600
     47 H47        -9.0567   -0.1429   62.1486 H       1  ZINC001085817863    0.1600
     48 H48        -8.5647    3.0099   61.4575 H       1  ZINC001085817863    0.0800
     49 H49        -9.6913    3.5652   62.7186 H       1  ZINC001085817863    0.0900
     50 H50        -8.5381    2.2555   63.0695 H       1  ZINC001085817863    0.0900
@<TRIPOS>BOND
     1     1     2    1
     2     1    26    1
     3     1    27    1
     4     1    28    1
     5     2     3    1
     6     2    29    1
     7     2    30    1
     8     3    24    1
     9     3     4    2
    10     4     5    1
    11     4    22    1
    12     5     6    2
    13     5     7   am
    14     7     8    1
    15     7     9    1
    16     8    31    1
    17     8    32    1
    18     8    33    1
    19     9    10    1
    20     9    34    1
    21     9    35    1
    22    10    11    1
    23    10    14    1
    24    10    12    1
    25    12    13    1
    26    12    36    1
    27    12    37    1
    28    13    14    1
    29    13    38    1
    30    13    39    1
    31    14    15    1
    32    15    16    1
    33    15    40    1
    34    15    41    1
    35    16    21   ar
    36    16    17   ar
    37    17    18   ar
    38    17    42    1
    39    18    19   ar
    40    18    43    1
    41    19    20   ar
    42    19    44    1
    43    20    21   ar
    44    21    45    1
    45    22    23    2
    46    22    46    1
    47    23    24    1
    48    23    47    1
    49    24    25    1
    50    25    48    1
    51    25    49    1
    52    25    50    1
@<TRIPOS>SUBSTRUCTURE
     1 ZINC001085817863        1 TEMP              0 ****  ****    0 ROOT


##########                                Name:    ZINC000089894387
##########                DOCK_Rotatable_Bonds:                   8
##########                         Heavy_Atoms:                  22
##########                    Molecular_Weight:             326.823
##########                DOCK_Rotatable_Bonds:                   8
##########                       Formal_Charge:          -0.0300003
##########                     HBond_Acceptors:                   6
##########                        HBond_Donors:                   2
##########                         Heavy_Atoms:                  22
##########                          Grid_Score:          -28.871120
##########                     Grid_vdw_energy:          -28.054020
##########                      Grid_es_energy:           -0.817101
##########           Internal_energy_repulsive:           22.641666

@<TRIPOS>MOLECULE
ZINC000089894387
 45 46 1 0 0
SMALL
USER_CHARGES


@<TRIPOS>ATOM
      1 C1        -15.1119    0.8093   54.8751 C.3     1  ZINC000089894387   -0.1700
      2 C2        -13.7248    0.2553   54.5434 C.3     1  ZINC000089894387    0.1700
      3 H3        -12.9687    0.8161   55.0929 H       1  ZINC000089894387    0.0900
      4 N4        -13.6589   -1.1574   54.9258 N.am    1  ZINC000089894387   -0.7400
      5 C5        -13.4952   -1.4984   56.2193 C.2     1  ZINC000089894387    0.7100
      6 O6        -13.4006   -0.6337   57.0688 O.2     1  ZINC000089894387   -0.5900
      7 N7        -13.4361   -2.7981   56.5713 N.am    1  ZINC000089894387   -0.7500
      8 C8        -13.2599   -3.1688   57.9776 C.3     1  ZINC000089894387    0.1400
      9 C9        -11.7813   -3.0538   58.3539 C.3     1  ZINC000089894387    0.0500
     10 O10       -11.0250   -4.0129   57.6122 O.3     1  ZINC000089894387   -0.3100
     11 C11        -9.6711   -3.9146   57.6770 C.ar    1  ZINC000089894387    0.1400
     12 C12        -9.0424   -3.7792   58.9061 C.ar    1  ZINC000089894387   -0.2100
     13 C13        -7.6658   -3.6793   58.9699 C.ar    1  ZINC000089894387   -0.0700
     14 C14        -6.9143   -3.7142   57.8103 C.ar    1  ZINC000089894387   -0.1500
     15 C15        -7.5387   -3.8487   56.5823 C.ar    1  ZINC000089894387    0.0000
     16 Cl16       -6.5921   -3.8922   55.1278 Cl      1  ZINC000089894387   -0.0600
     17 C17        -8.9154   -3.9552   56.5142 C.ar    1  ZINC000089894387   -0.1500
     18 C18       -13.4679    0.3896   53.0412 C.3     1  ZINC000089894387   -0.1000
     19 C19       -14.6923   -0.1060   52.2656 C.3     1  ZINC000089894387   -0.1600
     20 C20       -14.4575    0.1052   50.7675 C.3     1  ZINC000089894387    0.0600
     21 O21       -14.2007    1.4885   50.5172 O.3     1  ZINC000089894387   -0.3800
     22 C22       -13.0400    1.9955   51.1789 C.3     1  ZINC000089894387    0.0600
     23 C23       -13.2178    1.8603   52.6935 C.3     1  ZINC000089894387   -0.1500
     24 H24       -15.8680    0.2485   54.3256 H       1  ZINC000089894387    0.0600
     25 H25       -15.2949    0.7136   55.9453 H       1  ZINC000089894387    0.0600
     26 H26       -15.1609    1.8603   54.5907 H       1  ZINC000089894387    0.0700
     27 H27       -13.7332   -1.8472   54.2479 H       1  ZINC000089894387    0.3900
     28 H28       -13.5104   -3.4880   55.8935 H       1  ZINC000089894387    0.4000
     29 H29       -13.8478   -2.5001   58.6061 H       1  ZINC000089894387    0.0800
     30 H30       -13.5939   -4.1955   58.1273 H       1  ZINC000089894387    0.0900
     31 H31       -11.4241   -2.0506   58.1209 H       1  ZINC000089894387    0.0900
     32 H32       -11.6620   -3.2433   59.4207 H       1  ZINC000089894387    0.0700
     33 H33        -9.6287   -3.7515   59.8126 H       1  ZINC000089894387    0.1300
     34 H34        -7.1765   -3.5735   59.9268 H       1  ZINC000089894387    0.1400
     35 H35        -5.8385   -3.6359   57.8624 H       1  ZINC000089894387    0.1400
     36 H36        -9.4026   -4.0606   55.5562 H       1  ZINC000089894387    0.1400
     37 H37       -12.5957   -0.2035   52.7660 H       1  ZINC000089894387    0.0800
     38 H38       -14.8446   -1.1668   52.4645 H       1  ZINC000089894387    0.0700
     39 H39       -15.5731    0.4545   52.5787 H       1  ZINC000089894387    0.0800
     40 H40       -13.6008   -0.4874   50.4468 H       1  ZINC000089894387    0.0500
     41 H41       -15.3430   -0.2062   50.2134 H       1  ZINC000089894387    0.0900
     42 H42       -12.1647    1.4276   50.8636 H       1  ZINC000089894387    0.0500
     43 H43       -12.9043    3.0457   50.9212 H       1  ZINC000089894387    0.1000
     44 H44       -14.0689    2.4605   53.0153 H       1  ZINC000089894387    0.0800
     45 H45       -12.3156    2.2057   53.1985 H       1  ZINC000089894387    0.0800
@<TRIPOS>BOND
     1     1     2    1
     2     1    24    1
     3     1    25    1
     4     1    26    1
     5     2     3    1
     6     2     4    1
     7     2    18    1
     8     4     5   am
     9     4    27    1
    10     5     6    2
    11     5     7   am
    12     7     8    1
    13     7    28    1
    14     8     9    1
    15     8    29    1
    16     8    30    1
    17     9    10    1
    18     9    31    1
    19     9    32    1
    20    10    11    1
    21    11    17   ar
    22    11    12   ar
    23    12    13   ar
    24    12    33    1
    25    13    14   ar
    26    13    34    1
    27    14    15   ar
    28    14    35    1
    29    15    16    1
    30    15    17   ar
    31    17    36    1
    32    18    23    1
    33    18    19    1
    34    18    37    1
    35    19    20    1
    36    19    38    1
    37    19    39    1
    38    20    21    1
    39    20    40    1
    40    20    41    1
    41    21    22    1
    42    22    23    1
    43    22    42    1
    44    22    43    1
    45    23    44    1
    46    23    45    1
@<TRIPOS>SUBSTRUCTURE
     1 ZINC000089894387        1 TEMP              0 ****  ****    0 ROOT


##########                                Name:    ZINC000482187991
##########                DOCK_Rotatable_Bonds:                  11
##########                         Heavy_Atoms:                  29
##########                    Molecular_Weight:             407.414
##########                DOCK_Rotatable_Bonds:                  11
##########                       Formal_Charge:           0.0299996
##########                     HBond_Acceptors:                   8
##########                        HBond_Donors:                   1
##########                         Heavy_Atoms:                  29
##########                          Grid_Score:          -28.831663
##########                     Grid_vdw_energy:          -29.171484
##########                      Grid_es_energy:            0.339821
##########           Internal_energy_repulsive:          108.559456

@<TRIPOS>MOLECULE
ZINC000482187991
 52 53 1 0 0
SMALL
USER_CHARGES


@<TRIPOS>ATOM
      1 C1        -14.2290   -2.6710   60.2784 C.3     1  ZINC000482187991    0.0200
      2 O2        -13.5639   -2.2643   59.0807 O.3     1  ZINC000482187991   -0.3000
      3 C3        -12.2120   -2.1288   59.1408 C.ar    1  ZINC000482187991    0.1400
      4 C4        -11.6426   -1.3109   60.0969 C.ar    1  ZINC000482187991   -0.1700
      5 C5        -10.2507   -1.1724   60.1583 C.ar    1  ZINC000482187991   -0.1000
      6 C6         -9.6414   -0.3039   61.1737 C.2     1  ZINC000482187991    0.4000
      7 O7         -8.8857   -0.7730   61.9985 O.2     1  ZINC000482187991   -0.4500
      8 C8         -9.9548    1.1701   61.1911 C.3     1  ZINC000482187991   -0.1500
      9 C9         -9.3455    1.8356   59.9556 C.3     1  ZINC000482187991   -0.1300
     10 C10        -8.9649    3.2558   60.2862 C.2     1  ZINC000482187991    0.5200
     11 O11        -7.9606    3.7410   59.8100 O.2     1  ZINC000482187991   -0.5200
     12 N12        -9.7405    3.9867   61.1112 N.am    1  ZINC000482187991   -0.7200
     13 C13        -9.3695    5.3668   61.4340 C.3     1  ZINC000482187991    0.1500
     14 H14        -8.8183    5.7995   60.5991 H       1  ZINC000482187991    0.1300
     15 C15        -8.5039    5.3788   62.6675 C.ar    1  ZINC000482187991   -0.1100
     16 C16        -7.1273    5.3467   62.5463 C.ar    1  ZINC000482187991   -0.1000
     17 C17        -6.3333    5.3576   63.6777 C.ar    1  ZINC000482187991   -0.1200
     18 C18        -6.9159    5.4010   64.9306 C.ar    1  ZINC000482187991   -0.1100
     19 C19        -8.2926    5.4339   65.0518 C.ar    1  ZINC000482187991   -0.1200
     20 C20        -9.0865    5.4273   63.9202 C.ar    1  ZINC000482187991   -0.1000
     21 C21       -10.6345    6.1882   61.6905 C.3     1  ZINC000482187991    0.2500
     22 F22       -11.4380    6.1770   60.5453 F       1  ZINC000482187991   -0.1900
     23 F23       -11.3419    5.6328   62.7620 F       1  ZINC000482187991   -0.2000
     24 C24        -9.4411   -1.8643   59.2493 C.ar    1  ZINC000482187991   -0.1900
     25 C25       -10.0178   -2.6805   58.2959 C.ar    1  ZINC000482187991    0.1400
     26 O26        -9.2322   -3.3534   57.4129 O.3     1  ZINC000482187991   -0.3000
     27 C27        -8.1580   -4.1233   57.9562 C.3     1  ZINC000482187991    0.0200
     28 C28       -11.4029   -2.8199   58.2414 C.ar    1  ZINC000482187991    0.0600
     29 O29       -11.9665   -3.6238   57.3026 O.3     1  ZINC000482187991   -0.3100
     30 C30       -13.3918   -3.7254   57.3066 C.3     1  ZINC000482187991    0.0400
     31 H31       -15.3009   -2.7404   60.0931 H       1  ZINC000482187991    0.1100
     32 H32       -13.8507   -3.6442   60.5915 H       1  ZINC000482187991    0.0600
     33 H33       -14.0426   -1.9388   61.0640 H       1  ZINC000482187991    0.0600
     34 H34       -12.2703   -0.7784   60.7962 H       1  ZINC000482187991    0.1500
     35 H35       -11.0356    1.3118   61.1844 H       1  ZINC000482187991    0.1100
     36 H36        -9.5349    1.6202   62.0906 H       1  ZINC000482187991    0.1100
     37 H37        -8.4576    1.2841   59.6464 H       1  ZINC000482187991    0.1000
     38 H38       -10.0745    1.8341   59.1452 H       1  ZINC000482187991    0.1000
     39 H39       -10.5445    3.5991   61.4911 H       1  ZINC000482187991    0.4100
     40 H40        -6.6721    5.3128   61.5674 H       1  ZINC000482187991    0.1200
     41 H41        -5.2578    5.3319   63.5830 H       1  ZINC000482187991    0.1300
     42 H42        -6.2956    5.4088   65.8147 H       1  ZINC000482187991    0.1300
     43 H43        -8.7477    5.4674   66.0307 H       1  ZINC000482187991    0.1300
     44 H44       -10.1619    5.4531   64.0150 H       1  ZINC000482187991    0.1300
     45 H45       -10.3585    7.2150   61.9307 H       1  ZINC000482187991    0.1200
     46 H46        -8.3671   -1.7596   59.2935 H       1  ZINC000482187991    0.1500
     47 H47        -7.4838   -3.4679   58.5077 H       1  ZINC000482187991    0.0600
     48 H48        -8.5584   -4.8818   58.6289 H       1  ZINC000482187991    0.0600
     49 H49        -7.6122   -4.6075   57.1464 H       1  ZINC000482187991    0.1100
     50 H50       -13.7255   -4.1182   58.2671 H       1  ZINC000482187991    0.0500
     51 H51       -13.8269   -2.7388   57.1468 H       1  ZINC000482187991    0.0500
     52 H52       -13.7105   -4.3966   56.5091 H       1  ZINC000482187991    0.1000
@<TRIPOS>BOND
     1     1     2    1
     2     1    31    1
     3     1    32    1
     4     1    33    1
     5     2     3    1
     6     3    28   ar
     7     3     4   ar
     8     4     5   ar
     9     4    34    1
    10     5     6    1
    11     5    24   ar
    12     6     7    2
    13     6     8    1
    14     8     9    1
    15     8    35    1
    16     8    36    1
    17     9    10    1
    18     9    37    1
    19     9    38    1
    20    10    11    2
    21    10    12   am
    22    12    13    1
    23    12    39    1
    24    13    14    1
    25    13    15    1
    26    13    21    1
    27    15    20   ar
    28    15    16   ar
    29    16    17   ar
    30    16    40    1
    31    17    18   ar
    32    17    41    1
    33    18    19   ar
    34    18    42    1
    35    19    20   ar
    36    19    43    1
    37    20    44    1
    38    21    22    1
    39    21    23    1
    40    21    45    1
    41    24    25   ar
    42    24    46    1
    43    25    26    1
    44    25    28   ar
    45    26    27    1
    46    27    47    1
    47    27    48    1
    48    27    49    1
    49    28    29    1
    50    29    30    1
    51    30    50    1
    52    30    51    1
    53    30    52    1
@<TRIPOS>SUBSTRUCTURE
     1 ZINC000482187991        1 TEMP              0 ****  ****    0 ROOT


##########                                Name:    ZINC000963156778
##########                DOCK_Rotatable_Bonds:                   6
##########                         Heavy_Atoms:                  24
##########                    Molecular_Weight:             349.414
##########                DOCK_Rotatable_Bonds:                   6
##########                       Formal_Charge:         -0.00999984
##########                     HBond_Acceptors:                   9
##########                        HBond_Donors:                   2
##########                         Heavy_Atoms:                  24
##########                          Grid_Score:          -28.803297
##########                     Grid_vdw_energy:          -25.597355
##########                      Grid_es_energy:           -3.205942
##########           Internal_energy_repulsive:           11.379548

@<TRIPOS>MOLECULE
ZINC000963156778
 43 46 1 0 0
SMALL
USER_CHARGES


@<TRIPOS>ATOM
      1 C1        -10.5628    4.0454   65.9845 C.3     1  ZINC000963156778   -0.0800
      2 C2         -9.0777    4.2900   66.0628 C.2     1  ZINC000963156778    0.0300
      3 C3         -8.1474    3.3142   65.9446 C.2     1  ZINC000963156778   -0.2600
      4 C4         -8.3734    1.8413   65.7193 C.3     1  ZINC000963156778    0.1300
      5 N5         -8.4083    1.5663   64.2767 N.3     1  ZINC000963156778   -0.5000
      6 C6         -9.5696    2.2346   63.6352 C.3     1  ZINC000963156778    0.0600
      7 C7         -9.7896    1.4553   62.3209 C.3     1  ZINC000963156778   -0.1700
      8 H8         -9.6372    1.9916   61.3842 H       1  ZINC000963156778    0.1200
      9 C9         -9.1708    0.0647   62.5710 C.3     1  ZINC000963156778   -0.1700
     10 H10        -8.5695   -0.4406   61.8153 H       1  ZINC000963156778    0.1200
     11 C11        -8.6290    0.1207   64.0155 C.3     1  ZINC000963156778    0.0600
     12 C12       -10.7157    0.2378   62.3505 C.3     1  ZINC000963156778    0.1200
     13 H13       -11.3639    0.1151   63.2182 H       1  ZINC000963156778    0.1400
     14 N14       -11.2721   -0.2251   61.0768 N.am    1  ZINC000963156778   -0.7000
     15 C15       -12.5659   -0.5950   61.0012 C.2     1  ZINC000963156778    0.5100
     16 O16       -13.2699   -0.5432   61.9874 O.2     1  ZINC000963156778   -0.5000
     17 C17       -13.1377   -1.0728   59.6913 C.3     1  ZINC000963156778   -0.1300
     18 C18       -12.7312   -2.5293   59.4586 C.3     1  ZINC000963156778   -0.1100
     19 H19       -12.5391   -3.0292   60.4080 H       1  ZINC000963156778    0.1300
     20 C20       -11.4922   -2.6075   58.5435 C.3     1  ZINC000963156778   -0.1600
     21 C21       -11.9894   -3.3752   57.3382 C.2     1  ZINC000963156778    0.5300
     22 O22       -11.3251   -3.6624   56.3656 O.2     1  ZINC000963156778   -0.4800
     23 N23       -13.2790   -3.6875   57.5161 N.am    1  ZINC000963156778   -0.6900
     24 C24       -13.8001   -3.2622   58.6777 C.2     1  ZINC000963156778    0.5200
     25 O25       -14.9440   -3.4362   59.0395 O.2     1  ZINC000963156778   -0.4500
     26 S26        -6.6469    4.1411   66.1097 S.3     1  ZINC000963156778    0.4500
     27 N27        -7.2685    5.5644   66.3028 N.2     1  ZINC000963156778   -0.2900
     28 N28        -8.5402    5.4783   66.2483 N.2     1  ZINC000963156778   -0.2400
     29 H29       -10.8912    4.1323   64.9488 H       1  ZINC000963156778    0.0900
     30 H30       -10.7861    3.0445   66.3537 H       1  ZINC000963156778    0.0800
     31 H31       -11.0851    4.7826   66.5942 H       1  ZINC000963156778    0.0800
     32 H32        -7.5626    1.2750   66.1777 H       1  ZINC000963156778    0.1000
     33 H33        -9.3217    1.5464   66.1684 H       1  ZINC000963156778    0.0700
     34 H34       -10.4506    2.1609   64.2730 H       1  ZINC000963156778    0.0600
     35 H35        -9.3385    3.2787   63.4240 H       1  ZINC000963156778    0.0800
     36 H36        -7.6895   -0.4270   64.0906 H       1  ZINC000963156778    0.1000
     37 H37        -9.3627   -0.2839   64.7127 H       1  ZINC000963156778    0.0500
     38 H38       -10.7092   -0.2654   60.2878 H       1  ZINC000963156778    0.4000
     39 H39       -14.2247   -0.9992   59.7210 H       1  ZINC000963156778    0.1000
     40 H40       -12.7536   -0.4543   58.8801 H       1  ZINC000963156778    0.1200
     41 H41       -11.1654   -1.6087   58.2541 H       1  ZINC000963156778    0.1200
     42 H42       -10.6846   -3.1486   59.0367 H       1  ZINC000963156778    0.1300
     43 H43       -13.7948   -4.1819   56.8600 H       1  ZINC000963156778    0.4200
@<TRIPOS>BOND
     1     1     2    1
     2     1    29    1
     3     1    30    1
     4     1    31    1
     5     2    28    1
     6     2     3    2
     7     3     4    1
     8     3    26    1
     9     4     5    1
    10     4    32    1
    11     4    33    1
    12     5    11    1
    13     5     6    1
    14     6     7    1
    15     6    34    1
    16     6    35    1
    17     7     8    1
    18     7    12    1
    19     7     9    1
    20     9    10    1
    21     9    11    1
    22     9    12    1
    23    11    36    1
    24    11    37    1
    25    12    13    1
    26    12    14    1
    27    14    15   am
    28    14    38    1
    29    15    16    2
    30    15    17    1
    31    17    18    1
    32    17    39    1
    33    17    40    1
    34    18    19    1
    35    18    24    1
    36    18    20    1
    37    20    21    1
    38    20    41    1
    39    20    42    1
    40    21    22    2
    41    21    23   am
    42    23    24   am
    43    23    43    1
    44    24    25    2
    45    26    27    1
    46    27    28    2
@<TRIPOS>SUBSTRUCTURE
     1 ZINC000963156778        1 TEMP              0 ****  ****    0 ROOT


##########                                Name:    ZINC000442864105
##########                DOCK_Rotatable_Bonds:                   7
##########                         Heavy_Atoms:                  30
##########                    Molecular_Weight:              414.39
##########                DOCK_Rotatable_Bonds:                   7
##########                       Formal_Charge:           0.0200001
##########                     HBond_Acceptors:                  10
##########                        HBond_Donors:                   2
##########                         Heavy_Atoms:                  30
##########                          Grid_Score:          -28.801636
##########                     Grid_vdw_energy:          -27.498180
##########                      Grid_es_energy:           -1.303455
##########           Internal_energy_repulsive:           16.390251

@<TRIPOS>MOLECULE
ZINC000442864105
 47 50 1 0 0
SMALL
USER_CHARGES


@<TRIPOS>ATOM
      1 C1        -14.7687    0.2763   50.5677 C.3     1  ZINC000442864105    0.0800
      2 N2        -14.1903    1.1453   51.5957 N.pl3   1  ZINC000442864105   -0.4900
      3 C3        -13.6034    2.3606   51.3601 C.2     1  ZINC000442864105    0.0300
      4 C4        -13.1783    2.8948   52.5153 C.2     1  ZINC000442864105   -0.1900
      5 C5        -13.5201    1.9452   53.5783 C.ar    1  ZINC000442864105   -0.1600
      6 C6        -13.3411    1.9361   54.9630 C.ar    1  ZINC000442864105   -0.0200
      7 C7        -13.7834    0.8742   55.6990 C.ar    1  ZINC000442864105   -0.2100
      8 C8        -14.4136   -0.2028   55.0774 C.ar    1  ZINC000442864105    0.2400
      9 N9        -14.8606   -1.2821   55.8451 N.pl3   1  ZINC000442864105   -0.7400
     10 C10       -14.1599   -2.5670   55.7804 C.3     1  ZINC000442864105    0.1100
     11 C11       -12.8264   -2.4474   56.4722 C.2     1  ZINC000442864105    0.5100
     12 O12       -12.3274   -1.3551   56.6426 O.2     1  ZINC000442864105   -0.5100
     13 N13       -12.1883   -3.5541   56.9018 N.am    1  ZINC000442864105   -0.6600
     14 C14       -10.9498   -3.4430   57.5444 C.ar    1  ZINC000442864105    0.1600
     15 C15        -9.7879   -3.8156   56.8847 C.ar    1  ZINC000442864105   -0.0700
     16 C16        -8.5661   -3.7050   57.5211 C.ar    1  ZINC000442864105   -0.1600
     17 C17        -7.3052   -4.1104   56.8024 C.3     1  ZINC000442864105    0.5100
     18 F18        -6.2007   -3.5296   57.4346 F       1  ZINC000442864105   -0.1700
     19 F19        -7.1796   -5.5035   56.8308 F       1  ZINC000442864105   -0.1700
     20 F20        -7.3648   -3.6746   55.4743 F       1  ZINC000442864105   -0.1700
     21 C21        -8.4973   -3.2230   58.8155 C.ar    1  ZINC000442864105   -0.0600
     22 C22        -9.6500   -2.8499   59.4806 C.ar    1  ZINC000442864105   -0.1100
     23 C23       -10.8796   -2.9519   58.8478 C.ar    1  ZINC000442864105    0.1500
     24 N24       -12.0506   -2.5738   59.5209 N.pl3   1  ZINC000442864105   -0.3300
     25 C25       -12.2011   -1.5253   60.3528 C.2     1  ZINC000442864105    0.2800
     26 N26       -13.4404   -1.5160   60.7732 N.2     1  ZINC000442864105   -0.5300
     27 C27       -14.1080   -2.5360   60.2352 C.2     1  ZINC000442864105    0.2300
     28 N28       -13.3014   -3.2094   59.4568 N.2     1  ZINC000442864105   -0.3400
     29 C29       -14.6006   -0.2112   53.7059 C.ar    1  ZINC000442864105   -0.2100
     30 C30       -14.1605    0.8650   52.9436 C.ar    1  ZINC000442864105    0.1500
     31 H31       -15.8204    0.5271   50.4297 H       1  ZINC000442864105    0.0700
     32 H32       -14.2348    0.4196   49.6283 H       1  ZINC000442864105    0.0800
     33 H33       -14.6813   -0.7642   50.8803 H       1  ZINC000442864105    0.0800
     34 H34       -13.4985    2.8206   50.3886 H       1  ZINC000442864105    0.1700
     35 H35       -12.6786    3.8443   52.6384 H       1  ZINC000442864105    0.1400
     36 H36       -12.8532    2.7669   55.4511 H       1  ZINC000442864105    0.1200
     37 H37       -13.6437    0.8685   56.7699 H       1  ZINC000442864105    0.1200
     38 H38       -15.6347   -1.1803   56.4207 H       1  ZINC000442864105    0.4100
     39 H39       -14.7582   -3.3324   56.2746 H       1  ZINC000442864105    0.1000
     40 H40       -14.0046   -2.8442   54.7378 H       1  ZINC000442864105    0.1000
     41 H41       -12.5874   -4.4276   56.7657 H       1  ZINC000442864105    0.4300
     42 H42        -9.8381   -4.1924   55.8738 H       1  ZINC000442864105    0.1700
     43 H43        -7.5400   -3.1383   59.3081 H       1  ZINC000442864105    0.1500
     44 H44        -9.5925   -2.4742   60.4915 H       1  ZINC000442864105    0.1500
     45 H45       -11.4332   -0.8166   60.6259 H       1  ZINC000442864105    0.2300
     46 H46       -15.1484   -2.7668   60.4103 H       1  ZINC000442864105    0.2300
     47 H47       -15.0896   -1.0486   53.2304 H       1  ZINC000442864105    0.1200
@<TRIPOS>BOND
     1     1     2    1
     2     1    31    1
     3     1    32    1
     4     1    33    1
     5     2    30    1
     6     2     3    1
     7     3     4    2
     8     3    34    1
     9     4     5    1
    10     4    35    1
    11     5    30   ar
    12     5     6   ar
    13     6     7   ar
    14     6    36    1
    15     7     8   ar
    16     7    37    1
    17     8     9    1
    18     8    29   ar
    19     9    10    1
    20     9    38    1
    21    10    11    1
    22    10    39    1
    23    10    40    1
    24    11    12    2
    25    11    13   am
    26    13    14    1
    27    13    41    1
    28    14    23   ar
    29    14    15   ar
    30    15    16   ar
    31    15    42    1
    32    16    17    1
    33    16    21   ar
    34    17    18    1
    35    17    19    1
    36    17    20    1
    37    21    22   ar
    38    21    43    1
    39    22    23   ar
    40    22    44    1
    41    23    24    1
    42    24    28    1
    43    24    25    1
    44    25    26    2
    45    25    45    1
    46    26    27    1
    47    27    28    2
    48    27    46    1
    49    29    30   ar
    50    29    47    1
@<TRIPOS>SUBSTRUCTURE
     1 ZINC000442864105        1 TEMP              0 ****  ****    0 ROOT


##########                                Name:    ZINC000906038034
##########                DOCK_Rotatable_Bonds:                   5
##########                         Heavy_Atoms:                  23
##########                    Molecular_Weight:             387.428
##########                DOCK_Rotatable_Bonds:                   5
##########                       Formal_Charge:         -0.00999987
##########                     HBond_Acceptors:                  12
##########                        HBond_Donors:                   0
##########                         Heavy_Atoms:                  23
##########                          Grid_Score:          -28.796343
##########                     Grid_vdw_energy:          -26.854929
##########                      Grid_es_energy:           -1.941414
##########           Internal_energy_repulsive:            6.489447

@<TRIPOS>MOLECULE
ZINC000906038034
 35 36 1 0 0
SMALL
USER_CHARGES


@<TRIPOS>ATOM
      1 C1         -6.2403   -4.3882   56.4075 C.3     1  ZINC000906038034    0.1000
      2 N2         -7.2402   -3.8748   57.3471 N.pl3   1  ZINC000906038034   -0.3700
      3 C3         -7.0079   -3.4961   58.6227 C.2     1  ZINC000906038034    0.0600
      4 C4         -8.1780   -3.0841   59.1560 C.2     1  ZINC000906038034   -0.2500
      5 C5         -9.1738   -3.2148   58.1660 C.2     1  ZINC000906038034    0.1200
      6 C6        -10.6052   -2.8767   58.3210 C.2     1  ZINC000906038034    0.1500
      7 N7        -11.1402   -2.3159   59.3674 N.2     1  ZINC000906038034   -0.4300
      8 C8        -12.4335   -2.0890   59.3275 C.2     1  ZINC000906038034    0.0600
      9 C9        -13.1689   -1.4456   60.4747 C.3     1  ZINC000906038034   -0.5300
     10 S10       -12.1653   -0.0968   61.1558 S.o2    1  ZINC000906038034    2.4200
     11 O11       -12.8759    0.4966   62.2338 O.2     1  ZINC000906038034   -0.9100
     12 O12       -10.8473   -0.5800   61.3761 O.2     1  ZINC000906038034   -0.9200
     13 C13       -12.1269    1.0769   59.7732 C.3     1  ZINC000906038034   -0.6100
     14 C14       -12.3728    2.4926   60.2989 C.3     1  ZINC000906038034   -0.4500
     15 S15       -12.1352    3.6867   58.9543 S.o     1  ZINC000906038034    1.3300
     16 O16       -10.7830    3.6472   58.5192 O.2     1  ZINC000906038034   -0.7600
     17 C17       -12.4648    5.2785   59.7593 C.3     1  ZINC000906038034    0.1200
     18 F18       -11.5609    5.4657   60.8106 F       1  ZINC000906038034   -0.1900
     19 F19       -12.3169    6.3117   58.8277 F       1  ZINC000906038034   -0.1700
     20 F20       -13.7710    5.2860   60.2604 F       1  ZINC000906038034   -0.1600
     21 C21       -13.0566   -2.4639   58.2059 C.2     1  ZINC000906038034   -0.2300
     22 S22       -11.8591   -3.1609   57.1165 S.3     1  ZINC000906038034    0.1600
     23 N23        -8.6015   -3.6861   57.0763 N.2     1  ZINC000906038034   -0.2400
     24 H24        -5.7970   -3.5572   55.8588 H       1  ZINC000906038034    0.0800
     25 H25        -5.4619   -4.9165   56.9580 H       1  ZINC000906038034    0.0900
     26 H26        -6.7180   -5.0728   55.7066 H       1  ZINC000906038034    0.0900
     27 H27        -6.0535   -3.5191   59.1277 H       1  ZINC000906038034    0.1800
     28 H28        -8.3252   -2.7199   60.1619 H       1  ZINC000906038034    0.1600
     29 H29       -14.1195   -1.0476   60.1194 H       1  ZINC000906038034    0.1500
     30 H30       -13.3535   -2.1887   61.2504 H       1  ZINC000906038034    0.1600
     31 H31       -11.1523    1.0341   59.2871 H       1  ZINC000906038034    0.1500
     32 H32       -12.9034    0.8165   59.0539 H       1  ZINC000906038034    0.1500
     33 H33       -13.3927    2.5680   60.6759 H       1  ZINC000906038034    0.1600
     34 H34       -11.6709    2.7080   61.1046 H       1  ZINC000906038034    0.1300
     35 H35       -14.1113   -2.3546   58.0009 H       1  ZINC000906038034    0.1900
@<TRIPOS>BOND
     1     1     2    1
     2     1    24    1
     3     1    25    1
     4     1    26    1
     5     2    23    1
     6     2     3    1
     7     3     4    2
     8     3    27    1
     9     4     5    1
    10     4    28    1
    11     5     6    1
    12     5    23    2
    13     6    22    1
    14     6     7    2
    15     7     8    1
    16     8     9    1
    17     8    21    2
    18     9    10    1
    19     9    29    1
    20     9    30    1
    21    10    11    2
    22    10    12    2
    23    10    13    1
    24    13    14    1
    25    13    31    1
    26    13    32    1
    27    14    15    1
    28    14    33    1
    29    14    34    1
    30    15    16    2
    31    15    17    1
    32    17    18    1
    33    17    19    1
    34    17    20    1
    35    21    22    1
    36    21    35    1
@<TRIPOS>SUBSTRUCTURE
     1 ZINC000906038034        1 TEMP              0 ****  ****    0 ROOT


##########                                Name:    ZINC000185180600
##########                DOCK_Rotatable_Bonds:                   7
##########                         Heavy_Atoms:                  26
##########                    Molecular_Weight:             395.953
##########                DOCK_Rotatable_Bonds:                   7
##########                       Formal_Charge:          0.00999977
##########                     HBond_Acceptors:                   7
##########                        HBond_Donors:                   0
##########                         Heavy_Atoms:                  26
##########                          Grid_Score:          -28.790636
##########                     Grid_vdw_energy:          -29.025816
##########                      Grid_es_energy:            0.235181
##########           Internal_energy_repulsive:          102.740143

@<TRIPOS>MOLECULE
ZINC000185180600
 52 53 1 0 0
SMALL
USER_CHARGES


@<TRIPOS>ATOM
      1 C1         -8.1273    4.8430   66.1679 C.3     1  ZINC000185180600   -0.1500
      2 C2         -9.1544    5.7066   65.4331 C.3     1  ZINC000185180600   -0.0900
      3 C3         -9.5902    6.8612   66.3374 C.3     1  ZINC000185180600   -0.1500
      4 C4         -8.5278    6.2682   64.1553 C.3     1  ZINC000185180600   -0.1300
      5 C5         -8.0919    5.1136   63.2510 C.3     1  ZINC000185180600    0.1300
      6 H6         -7.3602    4.4983   63.7744 H       1  ZINC000185180600    0.1100
      7 C7         -7.4654    5.6751   61.9731 C.3     1  ZINC000185180600   -0.1600
      8 N8         -9.2582    4.2972   62.9051 N.am    1  ZINC000185180600   -0.6000
      9 C9        -10.0623    4.6308   61.7268 C.3     1  ZINC000185180600    0.0700
     10 C10        -9.5914    3.2394   63.6708 C.2     1  ZINC000185180600    0.5400
     11 O11        -8.9249    2.9623   64.6454 O.2     1  ZINC000185180600   -0.5300
     12 C12       -10.7922    2.4007   63.3160 C.3     1  ZINC000185180600   -0.5000
     13 S13       -10.3110    1.1365   62.1074 S.o     1  ZINC000185180600    1.3200
     14 O14        -9.8895    1.7665   60.9053 O.2     1  ZINC000185180600   -0.8000
     15 C15       -11.8624    0.2444   61.8106 C.3     1  ZINC000185180600   -0.3900
     16 C16       -11.6247   -0.8576   60.8105 C.2     1  ZINC000185180600    0.1000
     17 N17       -10.4764   -1.1588   60.2593 N.2     1  ZINC000185180600   -0.2800
     18 N18       -10.6776   -2.2390   59.3903 N.pl3   1  ZINC000185180600   -0.3200
     19 C19        -9.6955   -2.8622   58.6073 C.ar    1  ZINC000185180600    0.1700
     20 C20       -10.0297   -3.4018   57.3726 C.ar    1  ZINC000185180600   -0.1300
     21 C21        -9.0606   -4.0152   56.6032 C.ar    1  ZINC000185180600   -0.0800
     22 C22        -7.7574   -4.0927   57.0624 C.ar    1  ZINC000185180600   -0.0500
     23 Cl23       -6.5415   -4.8644   56.0929 Cl      1  ZINC000185180600   -0.0600
     24 C24        -7.4219   -3.5555   58.2928 C.ar    1  ZINC000185180600   -0.0800
     25 C25        -8.3862   -2.9357   59.0631 C.ar    1  ZINC000185180600   -0.1100
     26 C26       -11.9866   -2.5742   59.4404 C.2     1  ZINC000185180600    0.0600
     27 C27       -12.5924   -1.7388   60.3159 C.2     1  ZINC000185180600   -0.2500
     28 H28        -8.5737    4.4429   67.0784 H       1  ZINC000185180600    0.0500
     29 H29        -7.8167    4.0204   65.5238 H       1  ZINC000185180600    0.0600
     30 H30        -7.2596    5.4504   66.4254 H       1  ZINC000185180600    0.0500
     31 H31       -10.0221    5.0993   65.1757 H       1  ZINC000185180600    0.0700
     32 H32       -10.1106    6.4638   67.2089 H       1  ZINC000185180600    0.0500
     33 H33        -8.7123    7.4199   66.6620 H       1  ZINC000185180600    0.0500
     34 H34       -10.2583    7.5226   65.7858 H       1  ZINC000185180600    0.0500
     35 H35        -9.2595    6.8835   63.6319 H       1  ZINC000185180600    0.0700
     36 H36        -7.6600    6.8755   64.4127 H       1  ZINC000185180600    0.0800
     37 H37        -8.1972    6.2904   61.4496 H       1  ZINC000185180600    0.0600
     38 H38        -6.5977    6.2824   62.2305 H       1  ZINC000185180600    0.0700
     39 H39        -7.1549    4.8525   61.3288 H       1  ZINC000185180600    0.0600
     40 H40        -9.6661    4.1075   60.8566 H       1  ZINC000185180600    0.0600
     41 H41       -11.0956    4.3268   61.8941 H       1  ZINC000185180600    0.0700
     42 H42       -10.0234    5.7061   61.5529 H       1  ZINC000185180600    0.0800
     43 H43       -11.1758    1.9171   64.2144 H       1  ZINC000185180600    0.1500
     44 H44       -11.5662    3.0374   62.8873 H       1  ZINC000185180600    0.1200
     45 H45       -12.2192   -0.1853   62.7466 H       1  ZINC000185180600    0.1400
     46 H46       -12.6096    0.9349   61.4195 H       1  ZINC000185180600    0.1000
     47 H47       -11.0468   -3.3422   57.0142 H       1  ZINC000185180600    0.1400
     48 H48        -9.3201   -4.4352   55.6426 H       1  ZINC000185180600    0.1500
     49 H49        -6.4043   -3.6176   58.6492 H       1  ZINC000185180600    0.1400
     50 H50        -8.1238   -2.5167   60.0233 H       1  ZINC000185180600    0.1500
     51 H51       -12.4624   -3.3690   58.8850 H       1  ZINC000185180600    0.1800
     52 H52       -13.6395   -1.7461   60.5803 H       1  ZINC000185180600    0.1700
@<TRIPOS>BOND
     1     1     2    1
     2     1    28    1
     3     1    29    1
     4     1    30    1
     5     2     3    1
     6     2     4    1
     7     2    31    1
     8     3    32    1
     9     3    33    1
    10     3    34    1
    11     4     5    1
    12     4    35    1
    13     4    36    1
    14     5     6    1
    15     5     7    1
    16     5     8    1
    17     7    37    1
    18     7    38    1
    19     7    39    1
    20     8     9    1
    21     8    10   am
    22     9    40    1
    23     9    41    1
    24     9    42    1
    25    10    11    2
    26    10    12    1
    27    12    13    1
    28    12    43    1
    29    12    44    1
    30    13    14    2
    31    13    15    1
    32    15    16    1
    33    15    45    1
    34    15    46    1
    35    16    27    1
    36    16    17    2
    37    17    18    1
    38    18    19    1
    39    18    26    1
    40    19    25   ar
    41    19    20   ar
    42    20    21   ar
    43    20    47    1
    44    21    22   ar
    45    21    48    1
    46    22    23    1
    47    22    24   ar
    48    24    25   ar
    49    24    49    1
    50    25    50    1
    51    26    27    2
    52    26    51    1
    53    27    52    1
@<TRIPOS>SUBSTRUCTURE
     1 ZINC000185180600        1 TEMP              0 ****  ****    0 ROOT


##########                                Name:    ZINC001291841503
##########                DOCK_Rotatable_Bonds:                   7
##########                         Heavy_Atoms:                  28
##########                    Molecular_Weight:             397.544
##########                DOCK_Rotatable_Bonds:                   7
##########                       Formal_Charge:         -0.00999964
##########                     HBond_Acceptors:                   7
##########                        HBond_Donors:                   0
##########                         Heavy_Atoms:                  28
##########                          Grid_Score:          -28.778286
##########                     Grid_vdw_energy:          -26.411739
##########                      Grid_es_energy:           -2.366547
##########           Internal_energy_repulsive:           17.880838

@<TRIPOS>MOLECULE
ZINC001291841503
 55 58 1 0 0
SMALL
USER_CHARGES


@<TRIPOS>ATOM
      1 C1        -14.8079   -3.5166   58.6705 C.3     1  ZINC001291841503   -0.1500
      2 C2        -14.3299   -2.6453   59.8339 C.3     1  ZINC001291841503   -0.1100
      3 C3        -13.2656   -1.6664   59.3342 C.3     1  ZINC001291841503    0.0500
      4 H4        -13.6570   -1.1065   58.4848 H       1  ZINC001291841503    0.0900
      5 C5        -12.9027   -0.7106   60.4415 C.2     1  ZINC001291841503    0.2000
      6 N6        -13.4339   -0.6690   61.6305 N.2     1  ZINC001291841503   -0.2700
      7 N7        -12.8905    0.2672   62.3234 N.2     1  ZINC001291841503   -0.3100
      8 C8        -11.9760    0.8781   61.6077 C.2     1  ZINC001291841503    0.3600
      9 N9        -11.1814    1.9374   62.0167 N.3     1  ZINC001291841503   -0.4500
     10 C10       -11.9596    3.1811   62.0912 C.3     1  ZINC001291841503    0.0200
     11 C11       -10.5336    1.6439   63.3020 C.3     1  ZINC001291841503    0.0700
     12 H12       -11.2757    1.3966   64.0611 H       1  ZINC001291841503    0.0800
     13 C13        -9.4964    0.4981   63.1493 C.3     1  ZINC001291841503   -0.1400
     14 C14        -8.5038    0.8463   64.2870 C.3     1  ZINC001291841503    0.0500
     15 O15        -8.4482    2.2815   64.3102 O.3     1  ZINC001291841503   -0.3800
     16 C16        -9.6552    2.8289   63.7579 C.3     1  ZINC001291841503    0.0600
     17 N17       -11.9510    0.2696   60.3867 N.pl3   1  ZINC001291841503   -0.4700
     18 C18       -11.0899    0.6036   59.2494 C.3     1  ZINC001291841503    0.1900
     19 C19       -11.6306    1.8249   58.5515 C.2     1  ZINC001291841503   -0.2700
     20 C20       -12.9143    2.1913   58.4895 C.2     1  ZINC001291841503    0.0800
     21 N21       -13.1333    3.3037   57.8177 N.2     1  ZINC001291841503   -0.4800
     22 C22       -12.1058    3.8959   57.3095 C.2     1  ZINC001291841503    0.0500
     23 C23       -12.1537    5.1732   56.5113 C.3     1  ZINC001291841503   -0.0800
     24 S24       -10.6812    3.0259   57.6792 S.3     1  ZINC001291841503    0.1800
     25 C25       -12.0390   -2.4317   58.9092 C.ar    1  ZINC001291841503   -0.0900
     26 C26       -11.1012   -2.8126   59.8506 C.ar    1  ZINC001291841503   -0.0900
     27 C27        -9.9761   -3.5147   59.4608 C.ar    1  ZINC001291841503   -0.1200
     28 C28        -9.7890   -3.8363   58.1295 C.ar    1  ZINC001291841503   -0.1200
     29 C29       -10.7271   -3.4562   57.1881 C.ar    1  ZINC001291841503   -0.1200
     30 C30       -11.8545   -2.7579   57.5786 C.ar    1  ZINC001291841503   -0.1100
     31 H31       -15.2339   -2.8825   57.8929 H       1  ZINC001291841503    0.0500
     32 H32       -13.9642   -4.0737   58.2633 H       1  ZINC001291841503    0.0500
     33 H33       -15.5662   -4.2140   59.0264 H       1  ZINC001291841503    0.0600
     34 H34       -15.1735   -2.0881   60.2411 H       1  ZINC001291841503    0.0800
     35 H35       -13.9040   -3.2794   60.6115 H       1  ZINC001291841503    0.0800
     36 H36       -12.7147    3.0910   62.8723 H       1  ZINC001291841503    0.0500
     37 H37       -11.2943    4.0126   62.3234 H       1  ZINC001291841503    0.0900
     38 H38       -12.4474    3.3625   61.1335 H       1  ZINC001291841503    0.0700
     39 H39        -9.9585   -0.4750   63.3152 H       1  ZINC001291841503    0.0900
     40 H40        -9.0076    0.5378   62.1758 H       1  ZINC001291841503    0.0800
     41 H41        -8.8723    0.4665   65.2399 H       1  ZINC001291841503    0.0700
     42 H42        -7.5189    0.4330   64.0696 H       1  ZINC001291841503    0.0900
     43 H43        -9.4171    3.4600   62.9016 H       1  ZINC001291841503    0.0800
     44 H44       -10.1770    3.4133   64.5157 H       1  ZINC001291841503    0.0700
     45 H45       -10.0799    0.8061   59.6056 H       1  ZINC001291841503    0.1100
     46 H46       -11.0682   -0.2337   58.5519 H       1  ZINC001291841503    0.1100
     47 H47       -13.7073    1.6225   58.9522 H       1  ZINC001291841503    0.1700
     48 H48       -12.0520    6.0256   57.1831 H       1  ZINC001291841503    0.0900
     49 H49       -11.3379    5.1810   55.7885 H       1  ZINC001291841503    0.0800
     50 H50       -13.1061    5.2373   55.9848 H       1  ZINC001291841503    0.0900
     51 H51       -11.2475   -2.5613   60.8908 H       1  ZINC001291841503    0.1300
     52 H52        -9.2431   -3.8116   60.1963 H       1  ZINC001291841503    0.1200
     53 H53        -8.9096   -4.3842   57.8247 H       1  ZINC001291841503    0.1200
     54 H54       -10.5808   -3.7073   56.1479 H       1  ZINC001291841503    0.1200
     55 H55       -12.5875   -2.4610   56.8431 H       1  ZINC001291841503    0.1200
@<TRIPOS>BOND
     1     1     2    1
     2     1    31    1
     3     1    32    1
     4     1    33    1
     5     2     3    1
     6     2    34    1
     7     2    35    1
     8     3     4    1
     9     3     5    1
    10     3    25    1
    11     5    17    1
    12     5     6    2
    13     6     7    1
    14     7     8    2
    15     8     9    1
    16     8    17    1
    17     9    10    1
    18     9    11    1
    19    10    36    1
    20    10    37    1
    21    10    38    1
    22    11    12    1
    23    11    16    1
    24    11    13    1
    25    13    14    1
    26    13    39    1
    27    13    40    1
    28    14    15    1
    29    14    41    1
    30    14    42    1
    31    15    16    1
    32    16    43    1
    33    16    44    1
    34    17    18    1
    35    18    19    1
    36    18    45    1
    37    18    46    1
    38    19    24    1
    39    19    20    2
    40    20    21    1
    41    20    47    1
    42    21    22    2
    43    22    23    1
    44    22    24    1
    45    23    48    1
    46    23    49    1
    47    23    50    1
    48    25    30   ar
    49    25    26   ar
    50    26    27   ar
    51    26    51    1
    52    27    28   ar
    53    27    52    1
    54    28    29   ar
    55    28    53    1
    56    29    30   ar
    57    29    54    1
    58    30    55    1
@<TRIPOS>SUBSTRUCTURE
     1 ZINC001291841503        1 TEMP              0 ****  ****    0 ROOT


##########                                Name:    ZINC000015179664
##########                DOCK_Rotatable_Bonds:                   8
##########                         Heavy_Atoms:                  25
##########                    Molecular_Weight:             361.422
##########                DOCK_Rotatable_Bonds:                   8
##########                       Formal_Charge:        -2.23517e-07
##########                     HBond_Acceptors:                   8
##########                        HBond_Donors:                   1
##########                         Heavy_Atoms:                  25
##########                          Grid_Score:          -28.753546
##########                     Grid_vdw_energy:          -27.770313
##########                      Grid_es_energy:           -0.983233
##########           Internal_energy_repulsive:           25.390043

@<TRIPOS>MOLECULE
ZINC000015179664
 44 45 1 0 0
SMALL
USER_CHARGES


@<TRIPOS>ATOM
      1 C1        -14.4139   -3.9321   57.7636 C.3     1  ZINC000015179664   -0.1600
      2 C2        -13.7221   -2.5684   57.8160 C.3     1  ZINC000015179664    0.1800
      3 H3        -13.7915   -2.0880   56.8401 H       1  ZINC000015179664    0.1200
      4 C4        -12.2721   -2.7544   58.1823 C.ar    1  ZINC000015179664   -0.1000
      5 C5        -11.8447   -2.4870   59.4692 C.ar    1  ZINC000015179664   -0.0700
      6 C6        -10.5144   -2.6578   59.8052 C.ar    1  ZINC000015179664   -0.1200
      7 C7         -9.6123   -3.0963   58.8544 C.ar    1  ZINC000015179664   -0.0500
      8 C8        -10.0401   -3.3649   57.5674 C.ar    1  ZINC000015179664   -0.0400
      9 N9         -9.0738   -3.8341   56.5490 N.pl3   1  ZINC000015179664    0.0300
     10 O10        -7.9018   -3.9837   56.8448 O.2     1  ZINC000015179664   -0.1600
     11 O11        -9.4508   -4.0706   55.4152 O.2     1  ZINC000015179664   -0.1500
     12 C12       -11.3707   -3.1983   57.2325 C.ar    1  ZINC000015179664   -0.0400
     13 N13       -14.3758   -1.7276   58.8219 N.am    1  ZINC000015179664   -0.6100
     14 C14       -15.3058   -2.3247   59.7836 C.3     1  ZINC000015179664    0.0600
     15 C15       -14.1216   -0.4046   58.8627 C.2     1  ZINC000015179664    0.5200
     16 O16       -14.6639    0.2917   59.6946 O.2     1  ZINC000015179664   -0.5200
     17 C17       -13.1635    0.2094   57.8747 C.3     1  ZINC000015179664   -0.1500
     18 C18       -13.3422    1.7289   57.8678 C.3     1  ZINC000015179664    0.1300
     19 N19       -12.3761    2.3301   56.9451 N.am    1  ZINC000015179664   -0.7300
     20 C20       -11.1647    2.7141   57.3937 C.2     1  ZINC000015179664    0.5800
     21 O21       -10.8739    2.5630   58.5651 O.2     1  ZINC000015179664   -0.5300
     22 C22       -10.1934    3.3165   56.4661 C.2     1  ZINC000015179664   -0.1500
     23 C23       -10.4428    3.5150   55.1439 C.2     1  ZINC000015179664   -0.2200
     24 S24        -9.1009    4.2318   54.3753 S.3     1  ZINC000015179664    0.1900
     25 C25        -8.1732    4.2701   55.8647 C.2     1  ZINC000015179664   -0.2300
     26 C26        -8.8800    3.7633   56.8679 C.2     1  ZINC000015179664   -0.0900
     27 H27       -13.9275   -4.5577   57.0151 H       1  ZINC000015179664    0.0800
     28 H28       -14.3444   -4.4126   58.7395 H       1  ZINC000015179664    0.0600
     29 H29       -15.4626   -3.7975   57.4986 H       1  ZINC000015179664    0.0700
     30 H30       -12.5495   -2.1443   60.2121 H       1  ZINC000015179664    0.1500
     31 H31       -10.1802   -2.4480   60.8105 H       1  ZINC000015179664    0.1500
     32 H32        -8.5731   -3.2291   59.1167 H       1  ZINC000015179664    0.1600
     33 H33       -11.7050   -3.4079   56.2273 H       1  ZINC000015179664    0.1600
     34 H34       -14.7516   -2.6805   60.6520 H       1  ZINC000015179664    0.0600
     35 H35       -16.0332   -1.5764   60.0983 H       1  ZINC000015179664    0.0800
     36 H36       -15.8246   -3.1615   59.3157 H       1  ZINC000015179664    0.0800
     37 H37       -12.1405   -0.0349   58.1609 H       1  ZINC000015179664    0.1000
     38 H38       -13.3661   -0.1849   56.8790 H       1  ZINC000015179664    0.1000
     39 H39       -14.3541    1.9743   57.5452 H       1  ZINC000015179664    0.0800
     40 H40       -13.1765    2.1188   58.8721 H       1  ZINC000015179664    0.0800
     41 H41       -12.6084    2.4516   56.0111 H       1  ZINC000015179664    0.4000
     42 H42       -11.3660    3.2536   54.6481 H       1  ZINC000015179664    0.1700
     43 H43        -7.1684    4.6559   55.9536 H       1  ZINC000015179664    0.1700
     44 H44        -8.5083    3.6861   57.8789 H       1  ZINC000015179664    0.1600
@<TRIPOS>BOND
     1     1     2    1
     2     1    27    1
     3     1    28    1
     4     1    29    1
     5     2     3    1
     6     2     4    1
     7     2    13    1
     8     4    12   ar
     9     4     5   ar
    10     5     6   ar
    11     5    30    1
    12     6     7   ar
    13     6    31    1
    14     7     8   ar
    15     7    32    1
    16     8     9    1
    17     8    12   ar
    18     9    10    2
    19     9    11    2
    20    12    33    1
    21    13    14    1
    22    13    15   am
    23    14    34    1
    24    14    35    1
    25    14    36    1
    26    15    16    2
    27    15    17    1
    28    17    18    1
    29    17    37    1
    30    17    38    1
    31    18    19    1
    32    18    39    1
    33    18    40    1
    34    19    20   am
    35    19    41    1
    36    20    21    2
    37    20    22    1
    38    22    26    1
    39    22    23    2
    40    23    24    1
    41    23    42    1
    42    24    25    1
    43    25    26    2
    44    25    43    1
    45    26    44    1
@<TRIPOS>SUBSTRUCTURE
     1 ZINC000015179664        1 TEMP              0 ****  ****    0 ROOT


##########                                Name:    ZINC000673213454
##########                DOCK_Rotatable_Bonds:                   7
##########                         Heavy_Atoms:                  26
##########                    Molecular_Weight:             360.453
##########                DOCK_Rotatable_Bonds:                   7
##########                       Formal_Charge:          -0.0100001
##########                     HBond_Acceptors:                   6
##########                        HBond_Donors:                   1
##########                         Heavy_Atoms:                  26
##########                          Grid_Score:          -28.731958
##########                     Grid_vdw_energy:          -29.073709
##########                      Grid_es_energy:            0.341751
##########           Internal_energy_repulsive:           17.932451

@<TRIPOS>MOLECULE
ZINC000673213454
 54 56 1 0 0
SMALL
USER_CHARGES


@<TRIPOS>ATOM
      1 C1         -9.3053   -1.9714   60.4463 C.3     1  ZINC000673213454   -0.1700
      2 C2        -10.7402   -1.7012   59.9893 C.3     1  ZINC000673213454    0.1400
      3 H3        -11.4347   -2.0116   60.7700 H       1  ZINC000673213454    0.0900
      4 C4        -11.0252   -2.4904   58.7099 C.3     1  ZINC000673213454   -0.1200
      5 C5        -12.4441   -2.1835   58.2268 C.3     1  ZINC000673213454   -0.1300
      6 H6        -12.5305   -1.1353   57.9411 H       1  ZINC000673213454    0.0800
      7 C7        -13.4778   -2.5330   59.3251 C.3     1  ZINC000673213454   -0.1500
      8 C8        -14.6233   -3.1738   58.5007 C.3     1  ZINC000673213454    0.0500
      9 O9        -13.9270   -3.9140   57.4752 O.3     1  ZINC000673213454   -0.3800
     10 C10       -12.8210   -3.0976   57.0447 C.3     1  ZINC000673213454    0.0500
     11 N11       -10.9079   -0.2696   59.7276 N.am    1  ZINC000673213454   -0.6900
     12 C12       -11.4086    0.5364   60.6848 C.2     1  ZINC000673213454    0.5100
     13 O13       -11.7191    0.0764   61.7640 O.2     1  ZINC000673213454   -0.5100
     14 C14       -11.5814    1.9965   60.4172 C.2     1  ZINC000673213454    0.5000
     15 O15       -12.4595    2.3769   59.6710 O.2     1  ZINC000673213454   -0.5200
     16 N16       -10.7620    2.8909   61.0048 N.am    1  ZINC000673213454   -0.5800
     17 C17       -10.9571    4.3253   60.7213 C.3     1  ZINC000673213454    0.1100
     18 C18       -10.8082    5.1647   61.9986 C.3     1  ZINC000673213454   -0.1700
     19 C19       -11.4614    4.4426   63.1598 C.3     1  ZINC000673213454    0.0800
     20 O20       -10.4857    3.6313   63.8007 O.3     1  ZINC000673213454   -0.3800
     21 C21       -10.2622    2.3490   63.3418 C.3     1  ZINC000673213454    0.1500
     22 H22       -11.1971    1.7889   63.3588 H       1  ZINC000673213454    0.0600
     23 C23        -9.2520    1.6673   64.2283 C.ar    1  ZINC000673213454   -0.0800
     24 C24        -8.4565    2.4176   65.0738 C.ar    1  ZINC000673213454   -0.0900
     25 C25        -7.5299    1.7922   65.8870 C.ar    1  ZINC000673213454   -0.1300
     26 C26        -7.3991    0.4165   65.8549 C.ar    1  ZINC000673213454   -0.1200
     27 C27        -8.1953   -0.3340   65.0101 C.ar    1  ZINC000673213454   -0.1300
     28 C28        -9.1249    0.2910   64.2000 C.ar    1  ZINC000673213454   -0.0900
     29 C29        -9.7249    2.4067   61.8969 C.3     1  ZINC000673213454    0.0700
     30 H30        -8.6108   -1.6610   59.6656 H       1  ZINC000673213454    0.0600
     31 H31        -9.1022   -1.4092   61.3578 H       1  ZINC000673213454    0.0600
     32 H32        -9.1804   -3.0366   60.6410 H       1  ZINC000673213454    0.0700
     33 H33       -10.3092   -2.2043   57.9395 H       1  ZINC000673213454    0.0800
     34 H34       -10.9333   -3.5574   58.9130 H       1  ZINC000673213454    0.0900
     35 H35       -13.0633   -3.2476   60.0362 H       1  ZINC000673213454    0.0800
     36 H36       -13.8220   -1.6335   59.8355 H       1  ZINC000673213454    0.0800
     37 H37       -15.2154   -3.8446   59.1233 H       1  ZINC000673213454    0.0900
     38 H38       -15.2542   -2.4036   58.0569 H       1  ZINC000673213454    0.0600
     39 H39       -13.1171   -2.4949   56.1862 H       1  ZINC000673213454    0.0600
     40 H40       -11.9736   -3.7305   56.7811 H       1  ZINC000673213454    0.0900
     41 H41       -10.6587    0.0983   58.8654 H       1  ZINC000673213454    0.4100
     42 H42       -10.2156    4.6497   59.9913 H       1  ZINC000673213454    0.0800
     43 H43       -11.9545    4.4760   60.3082 H       1  ZINC000673213454    0.0900
     44 H44        -9.7501    5.3145   62.2132 H       1  ZINC000673213454    0.0800
     45 H45       -11.2898    6.1319   61.8555 H       1  ZINC000673213454    0.0900
     46 H46       -11.8538    5.1713   63.8691 H       1  ZINC000673213454    0.1000
     47 H47       -12.2726    3.8153   62.7903 H       1  ZINC000673213454    0.0500
     48 H48        -8.5587    3.4924   65.0989 H       1  ZINC000673213454    0.1300
     49 H49        -6.9079    2.3786   66.5472 H       1  ZINC000673213454    0.1200
     50 H50        -6.6747   -0.0721   66.4897 H       1  ZINC000673213454    0.1200
     51 H51        -8.0929   -1.4088   64.9847 H       1  ZINC000673213454    0.1200
     52 H52        -9.7469   -0.2953   63.5400 H       1  ZINC000673213454    0.1300
     53 H53        -9.4166    1.4091   61.5841 H       1  ZINC000673213454    0.1200
     54 H54        -8.8697    3.0811   61.8543 H       1  ZINC000673213454    0.0800
@<TRIPOS>BOND
     1     1     2    1
     2     1    30    1
     3     1    31    1
     4     1    32    1
     5     2     3    1
     6     2     4    1
     7     2    11    1
     8     4     5    1
     9     4    33    1
    10     4    34    1
    11     5     6    1
    12     5    10    1
    13     5     7    1
    14     7     8    1
    15     7    35    1
    16     7    36    1
    17     8     9    1
    18     8    37    1
    19     8    38    1
    20     9    10    1
    21    10    39    1
    22    10    40    1
    23    11    12   am
    24    11    41    1
    25    12    13    2
    26    12    14    1
    27    14    15    2
    28    14    16   am
    29    16    29    1
    30    16    17    1
    31    17    18    1
    32    17    42    1
    33    17    43    1
    34    18    19    1
    35    18    44    1
    36    18    45    1
    37    19    20    1
    38    19    46    1
    39    19    47    1
    40    20    21    1
    41    21    22    1
    42    21    23    1
    43    21    29    1
    44    23    28   ar
    45    23    24   ar
    46    24    25   ar
    47    24    48    1
    48    25    26   ar
    49    25    49    1
    50    26    27   ar
    51    26    50    1
    52    27    28   ar
    53    27    51    1
    54    28    52    1
    55    29    53    1
    56    29    54    1
@<TRIPOS>SUBSTRUCTURE
     1 ZINC000673213454        1 TEMP              0 ****  ****    0 ROOT


##########                                Name:    ZINC000609484313
##########                DOCK_Rotatable_Bonds:                  10
##########                         Heavy_Atoms:                  26
##########                    Molecular_Weight:             361.487
##########                DOCK_Rotatable_Bonds:                  10
##########                       Formal_Charge:          -0.0200004
##########                     HBond_Acceptors:                   7
##########                        HBond_Donors:                   1
##########                         Heavy_Atoms:                  26
##########                          Grid_Score:          -28.731691
##########                     Grid_vdw_energy:          -27.422379
##########                      Grid_es_energy:           -1.309313
##########           Internal_energy_repulsive:           33.632820

@<TRIPOS>MOLECULE
ZINC000609484313
 57 58 1 0 0
SMALL
USER_CHARGES


@<TRIPOS>ATOM
      1 C1         -8.4986   -3.9421   58.0133 C.3     1  ZINC000609484313   -0.1500
      2 C2         -8.3111   -2.9240   59.1399 C.3     1  ZINC000609484313   -0.1300
      3 C3         -9.5851   -2.0905   59.2913 C.3     1  ZINC000609484313   -0.1100
      4 C4         -9.3806   -1.0404   60.3851 C.3     1  ZINC000609484313   -0.1100
      5 C5        -10.5714   -0.0799   60.3992 C.3     1  ZINC000609484313    0.0800
      6 H6        -10.3717    0.7562   59.7290 H       1  ZINC000609484313    0.1200
      7 C7        -11.8089   -0.8071   59.9403 C.2     1  ZINC000609484313    0.4900
      8 O8        -12.4007   -1.5392   60.7049 O.2     1  ZINC000609484313   -0.5000
      9 N9        -12.2580   -0.6441   58.6800 N.am    1  ZINC000609484313   -0.6300
     10 C10       -13.4046   -1.3160   58.2558 C.2     1  ZINC000609484313    0.2400
     11 N11       -14.1439   -2.1299   58.9626 N.2     1  ZINC000609484313   -0.3900
     12 O12       -15.0730   -2.5574   58.3174 O.3     1  ZINC000609484313    0.1000
     13 C13       -15.0741   -2.0728   57.0671 C.2     1  ZINC000609484313   -0.0200
     14 C14       -16.0742   -2.3811   55.9828 C.3     1  ZINC000609484313   -0.0800
     15 C15       -14.0063   -1.2483   56.9710 C.2     1  ZINC000609484313   -0.2300
     16 N16       -10.7775    0.4245   61.7634 N.3     1  ZINC000609484313   -0.5000
     17 C17       -11.9300    1.3344   61.8201 C.3     1  ZINC000609484313    0.0400
     18 C18       -12.1589    1.7741   63.2680 C.3     1  ZINC000609484313    0.0500
     19 N19       -10.9466    2.4321   63.7749 N.3     1  ZINC000609484313   -0.5100
     20 C20       -11.1526    2.9365   65.1392 C.3     1  ZINC000609484313    0.1800
     21 H21       -11.6050    2.1558   65.7508 H       1  ZINC000609484313    0.1200
     22 C22        -9.8569    3.3254   65.7194 C.1     1  ZINC000609484313    0.1700
     23 N23        -8.8570    3.6255   66.1672 N.1     1  ZINC000609484313   -0.4200
     24 C24       -12.0790    4.1535   65.0984 C.3     1  ZINC000609484313   -0.0800
     25 C25       -12.1659    4.7752   66.4937 C.3     1  ZINC000609484313   -0.1400
     26 C26       -11.5231    5.1848   64.1143 C.3     1  ZINC000609484313   -0.1500
     27 C27        -9.7941    1.5221   63.7183 C.3     1  ZINC000609484313    0.0500
     28 C28        -9.5651    1.0826   62.2703 C.3     1  ZINC000609484313    0.0400
     29 H29        -9.3357   -4.5982   58.2521 H       1  ZINC000609484313    0.0500
     30 H30        -8.7029   -3.4177   57.0798 H       1  ZINC000609484313    0.0500
     31 H31        -7.5910   -4.5360   57.9054 H       1  ZINC000609484313    0.0500
     32 H32        -8.1069   -3.4485   60.0733 H       1  ZINC000609484313    0.0600
     33 H33        -7.4740   -2.2679   58.9010 H       1  ZINC000609484313    0.0600
     34 H34        -9.8084   -1.5932   58.3474 H       1  ZINC000609484313    0.0800
     35 H35       -10.4153   -2.7421   59.5640 H       1  ZINC000609484313    0.0600
     36 H36        -9.3012   -1.5349   61.3532 H       1  ZINC000609484313    0.0700
     37 H37        -8.4658   -0.4821   60.1862 H       1  ZINC000609484313    0.0800
     38 H38       -11.7841   -0.0595   58.0681 H       1  ZINC000609484313    0.4200
     39 H39       -16.8222   -3.0756   56.3653 H       1  ZINC000609484313    0.0800
     40 H40       -16.5624   -1.4594   55.6660 H       1  ZINC000609484313    0.0900
     41 H41       -15.5614   -2.8313   55.1328 H       1  ZINC000609484313    0.0900
     42 H42       -13.6822   -0.6767   56.1140 H       1  ZINC000609484313    0.1900
     43 H43       -11.7330    2.2097   61.2011 H       1  ZINC000609484313    0.0800
     44 H44       -12.8177    0.8203   61.4514 H       1  ZINC000609484313    0.0800
     45 H45       -12.9954    2.4718   63.3084 H       1  ZINC000609484313    0.0900
     46 H46       -12.3827    0.9016   63.8818 H       1  ZINC000609484313    0.0400
     47 H47       -13.0729    3.8429   64.7764 H       1  ZINC000609484313    0.0800
     48 H48       -11.1719    5.0858   66.8157 H       1  ZINC000609484313    0.0600
     49 H49       -12.8259    5.6423   66.4646 H       1  ZINC000609484313    0.0500
     50 H50       -12.5620    4.0406   67.1948 H       1  ZINC000609484313    0.0700
     51 H51       -12.1305    6.0890   64.1540 H       1  ZINC000609484313    0.0700
     52 H52       -10.4946    5.4259   64.3829 H       1  ZINC000609484313    0.0600
     53 H53       -11.5482    4.7742   63.1049 H       1  ZINC000609484313    0.0500
     54 H54        -8.9064    2.0362   64.0870 H       1  ZINC000609484313    0.0900
     55 H55        -9.9911    0.6468   64.3373 H       1  ZINC000609484313    0.0400
     56 H56        -8.7288    0.3848   62.2300 H       1  ZINC000609484313    0.0800
     57 H57        -9.3413    1.9550   61.6565 H       1  ZINC000609484313    0.0800
@<TRIPOS>BOND
     1     1     2    1
     2     1    29    1
     3     1    30    1
     4     1    31    1
     5     2     3    1
     6     2    32    1
     7     2    33    1
     8     3     4    1
     9     3    34    1
    10     3    35    1
    11     4     5    1
    12     4    36    1
    13     4    37    1
    14     5     6    1
    15     5     7    1
    16     5    16    1
    17     7     8    2
    18     7     9   am
    19     9    10    1
    20     9    38    1
    21    10    15    1
    22    10    11    2
    23    11    12    1
    24    12    13    1
    25    13    14    1
    26    13    15    2
    27    14    39    1
    28    14    40    1
    29    14    41    1
    30    15    42    1
    31    16    28    1
    32    16    17    1
    33    17    18    1
    34    17    43    1
    35    17    44    1
    36    18    19    1
    37    18    45    1
    38    18    46    1
    39    19    20    1
    40    19    27    1
    41    20    21    1
    42    20    22    1
    43    20    24    1
    44    22    23    3
    45    24    25    1
    46    24    26    1
    47    24    47    1
    48    25    48    1
    49    25    49    1
    50    25    50    1
    51    26    51    1
    52    26    52    1
    53    26    53    1
    54    27    28    1
    55    27    54    1
    56    27    55    1
    57    28    56    1
    58    28    57    1
@<TRIPOS>SUBSTRUCTURE
     1 ZINC000609484313        1 TEMP              0 ****  ****    0 ROOT


##########                                Name:    ZINC000599228306
##########                DOCK_Rotatable_Bonds:                   8
##########                         Heavy_Atoms:                  25
##########                    Molecular_Weight:             379.382
##########                DOCK_Rotatable_Bonds:                   8
##########                       Formal_Charge:        -4.09782e-08
##########                     HBond_Acceptors:                  10
##########                        HBond_Donors:                   1
##########                         Heavy_Atoms:                  25
##########                          Grid_Score:          -28.719986
##########                     Grid_vdw_energy:          -28.309744
##########                      Grid_es_energy:           -0.410242
##########           Internal_energy_repulsive:           40.752876

@<TRIPOS>MOLECULE
ZINC000599228306
 44 44 1 0 0
SMALL
USER_CHARGES


@<TRIPOS>ATOM
      1 C1         -6.9443   -4.3373   56.6184 C.3     1  ZINC000599228306    0.0400
      2 O2         -8.2232   -3.7962   57.0428 O.3     1  ZINC000599228306   -0.3500
      3 C3         -8.3585   -3.5002   58.3502 C.2     1  ZINC000599228306    0.5100
      4 O4         -7.4638   -3.7641   59.1286 O.2     1  ZINC000599228306   -0.4800
      5 C5         -9.5935   -2.8554   58.8367 C.ar    1  ZINC000599228306   -0.1500
      6 C6         -9.5298   -1.8801   59.8345 C.ar    1  ZINC000599228306   -0.0100
      7 C7        -10.6895   -1.2810   60.2850 C.ar    1  ZINC000599228306    0.0700
      8 F8        -10.6294   -0.3374   61.2500 F       1  ZINC000599228306   -0.1200
      9 C9        -11.9152   -1.6448   59.7493 C.ar    1  ZINC000599228306    0.0100
     10 C10       -11.9865   -2.6093   58.7614 C.ar    1  ZINC000599228306   -0.7100
     11 S11       -13.5500   -3.0633   58.0876 S.o2    1  ZINC000599228306    2.7000
     12 O12       -13.2776   -3.8739   56.9527 O.2     1  ZINC000599228306   -0.9200
     13 O13       -14.3469   -3.4987   59.1805 O.2     1  ZINC000599228306   -0.9300
     14 N14       -14.2574   -1.6797   57.5151 N.am    1  ZINC000599228306   -1.1000
     15 C15       -13.5950   -0.8973   56.4685 C.3     1  ZINC000599228306    0.1600
     16 H16       -12.5297   -1.1281   56.4618 H       1  ZINC000599228306    0.1300
     17 C17       -14.2015   -1.2481   55.1084 C.3     1  ZINC000599228306   -0.1700
     18 C18       -13.7888    0.5721   56.7411 C.2     1  ZINC000599228306    0.4700
     19 O19       -14.7657    0.9512   57.3428 O.2     1  ZINC000599228306   -0.4900
     20 O20       -12.8764    1.4598   56.3155 O.3     1  ZINC000599228306   -0.3400
     21 C21       -13.2112    2.8660   56.4516 C.3     1  ZINC000599228306    0.1200
     22 C22       -12.1041    3.7167   55.8259 C.3     1  ZINC000599228306   -0.1900
     23 C23       -14.5350    3.1466   55.7378 C.3     1  ZINC000599228306   -0.1400
     24 C24       -13.3472    3.2167   57.9348 C.3     1  ZINC000599228306   -0.1800
     25 C25       -10.8333   -3.2140   58.2968 C.ar    1  ZINC000599228306    0.2500
     26 F26       -10.9045   -4.1561   57.3310 F       1  ZINC000599228306   -0.0900
     27 H27        -6.9697   -4.5309   55.5460 H       1  ZINC000599228306    0.1100
     28 H28        -6.1546   -3.6191   56.8393 H       1  ZINC000599228306    0.0700
     29 H29        -6.7486   -5.2678   57.1512 H       1  ZINC000599228306    0.0700
     30 H30        -8.5757   -1.5954   60.2529 H       1  ZINC000599228306    0.1700
     31 H31       -12.8188   -1.1728   60.1055 H       1  ZINC000599228306    0.1800
     32 H32       -15.1104   -1.3873   57.8726 H       1  ZINC000599228306    0.4300
     33 H33       -13.7085   -0.6659   54.3298 H       1  ZINC000599228306    0.0900
     34 H34       -14.0612   -2.3109   54.9113 H       1  ZINC000599228306    0.0700
     35 H35       -15.2668   -1.0173   55.1153 H       1  ZINC000599228306    0.0800
     36 H36       -12.0071    3.4670   54.7694 H       1  ZINC000599228306    0.0600
     37 H37       -12.3553    4.7724   55.9282 H       1  ZINC000599228306    0.0700
     38 H38       -11.1608    3.5169   56.3345 H       1  ZINC000599228306    0.0800
     39 H39       -15.3237    2.5406   56.1835 H       1  ZINC000599228306    0.0700
     40 H40       -14.7863    4.2023   55.8400 H       1  ZINC000599228306    0.0800
     41 H41       -14.4381    2.8969   54.6811 H       1  ZINC000599228306    0.0700
     42 H42       -12.4040    3.0168   58.4433 H       1  ZINC000599228306    0.0800
     43 H43       -13.5985    4.2724   58.0369 H       1  ZINC000599228306    0.0700
     44 H44       -14.1359    2.6106   58.3805 H       1  ZINC000599228306    0.0600
@<TRIPOS>BOND
     1     1     2    1
     2     1    27    1
     3     1    28    1
     4     1    29    1
     5     2     3    1
     6     3     4    2
     7     3     5    1
     8     5    25   ar
     9     5     6   ar
    10     6     7   ar
    11     6    30    1
    12     7     8    1
    13     7     9   ar
    14     9    10   ar
    15     9    31    1
    16    10    11    1
    17    10    25   ar
    18    11    12    2
    19    11    13    2
    20    11    14   am
    21    14    15    1
    22    14    32    1
    23    15    16    1
    24    15    17    1
    25    15    18    1
    26    17    33    1
    27    17    34    1
    28    17    35    1
    29    18    19    2
    30    18    20    1
    31    20    21    1
    32    21    22    1
    33    21    23    1
    34    21    24    1
    35    22    36    1
    36    22    37    1
    37    22    38    1
    38    23    39    1
    39    23    40    1
    40    23    41    1
    41    24    42    1
    42    24    43    1
    43    24    44    1
    44    25    26    1
@<TRIPOS>SUBSTRUCTURE
     1 ZINC000599228306        1 TEMP              0 ****  ****    0 ROOT


##########                                Name:    ZINC000548281822
##########                DOCK_Rotatable_Bonds:                   6
##########                         Heavy_Atoms:                  24
##########                    Molecular_Weight:             332.406
##########                DOCK_Rotatable_Bonds:                   6
##########                       Formal_Charge:        -5.58794e-08
##########                     HBond_Acceptors:                   8
##########                        HBond_Donors:                   2
##########                         Heavy_Atoms:                  24
##########                          Grid_Score:          -28.717293
##########                     Grid_vdw_energy:          -26.191944
##########                      Grid_es_energy:           -2.525349
##########           Internal_energy_repulsive:           15.498486

@<TRIPOS>MOLECULE
ZINC000548281822
 48 50 1 0 0
SMALL
USER_CHARGES


@<TRIPOS>ATOM
      1 C1        -14.6794    1.1631   58.9810 C.3     1  ZINC000548281822   -0.1700
      2 C2        -14.6525    0.1192   60.0994 C.3     1  ZINC000548281822    0.2600
      3 H3        -15.6695   -0.0740   60.4405 H       1  ZINC000548281822    0.1400
      4 N4        -14.0626   -1.1228   59.5939 N.am    1  ZINC000548281822   -0.7400
      5 C5        -12.7424   -1.1831   59.3298 C.2     1  ZINC000548281822    0.7100
      6 O6        -12.0411   -0.2063   59.5097 O.2     1  ZINC000548281822   -0.5700
      7 N7        -12.1993   -2.3262   58.8663 N.am    1  ZINC000548281822   -0.7400
      8 C8        -10.7639   -2.3923   58.5809 C.3     1  ZINC000548281822    0.1600
      9 H9        -10.4201   -1.4239   58.2174 H       1  ZINC000548281822    0.1000
     10 C10       -10.0045   -2.7574   59.8598 C.3     1  ZINC000548281822   -0.1400
     11 C11        -8.4986   -2.5981   59.6237 C.3     1  ZINC000548281822    0.1100
     12 N12        -8.1356   -3.3089   58.3955 N.pl3   1  ZINC000548281822   -0.4600
     13 C13        -6.8926   -3.6946   57.9902 C.2     1  ZINC000548281822   -0.0500
     14 C14        -7.0474   -4.3147   56.8028 C.2     1  ZINC000548281822   -0.0300
     15 N15        -8.3546   -4.3050   56.4951 N.2     1  ZINC000548281822   -0.4900
     16 C16        -9.0130   -3.7044   57.4429 C.2     1  ZINC000548281822    0.2100
     17 C17       -10.5025   -3.4625   57.5135 C.3     1  ZINC000548281822   -0.0500
     18 C18       -13.8268    0.6360   61.2492 C.2     1  ZINC000548281822    0.1700
     19 N19       -13.6023    1.8933   61.5464 N.2     1  ZINC000548281822   -0.4600
     20 C20       -12.8213    1.8726   62.6412 C.2     1  ZINC000548281822    0.1900
     21 C21       -12.2849    3.0734   63.3770 C.3     1  ZINC000548281822    0.0200
     22 C22       -12.5412    4.3348   62.5498 C.3     1  ZINC000548281822   -0.1400
     23 C23       -12.9886    3.1989   64.7297 C.3     1  ZINC000548281822   -0.1400
     24 C24       -10.7803    2.9057   63.5984 C.3     1  ZINC000548281822   -0.1400
     25 N25       -12.6144    0.6270   62.9482 N.2     1  ZINC000548281822   -0.3700
     26 O26       -13.1882   -0.0995   62.1642 O.3     1  ZINC000548281822    0.0800
     27 H27       -13.6623    1.3564   58.6400 H       1  ZINC000548281822    0.0700
     28 H28       -15.2766    0.7893   58.1494 H       1  ZINC000548281822    0.0900
     29 H29       -15.1183    2.0872   59.3571 H       1  ZINC000548281822    0.0800
     30 H30       -14.6222   -1.9018   59.4492 H       1  ZINC000548281822    0.4000
     31 H31       -12.7590   -3.1052   58.7216 H       1  ZINC000548281822    0.4000
     32 H32       -10.3171   -2.0975   60.6689 H       1  ZINC000548281822    0.1000
     33 H33       -10.2226   -3.7909   60.1292 H       1  ZINC000548281822    0.0800
     34 H34        -8.2550   -1.5409   59.5197 H       1  ZINC000548281822    0.0900
     35 H35        -7.9501   -3.0204   60.4658 H       1  ZINC000548281822    0.1000
     36 H36        -5.9638   -3.5340   58.5175 H       1  ZINC000548281822    0.1800
     37 H37        -6.2580   -4.7437   56.2036 H       1  ZINC000548281822    0.1700
     38 H38       -11.0125   -4.3863   57.7868 H       1  ZINC000548281822    0.0900
     39 H39       -10.8647   -3.1141   56.5463 H       1  ZINC000548281822    0.1000
     40 H40       -13.6131    4.4542   62.3919 H       1  ZINC000548281822    0.0600
     41 H41       -12.1532    5.2033   63.0819 H       1  ZINC000548281822    0.0700
     42 H42       -12.0398    4.2453   61.5860 H       1  ZINC000548281822    0.0700
     43 H43       -12.8060    2.3004   65.3190 H       1  ZINC000548281822    0.0600
     44 H44       -12.6007    4.0675   65.2618 H       1  ZINC000548281822    0.0700
     45 H45       -14.0605    3.3184   64.5720 H       1  ZINC000548281822    0.0600
     46 H46       -10.2789    2.8163   62.6347 H       1  ZINC000548281822    0.0700
     47 H47       -10.3924    3.7743   64.1305 H       1  ZINC000548281822    0.0700
     48 H48       -10.5977    2.0072   64.1877 H       1  ZINC000548281822    0.0600
@<TRIPOS>BOND
     1     1     2    1
     2     1    27    1
     3     1    28    1
     4     1    29    1
     5     2     3    1
     6     2     4    1
     7     2    18    1
     8     4     5   am
     9     4    30    1
    10     5     6    2
    11     5     7   am
    12     7     8    1
    13     7    31    1
    14     8     9    1
    15     8    17    1
    16     8    10    1
    17    10    11    1
    18    10    32    1
    19    10    33    1
    20    11    12    1
    21    11    34    1
    22    11    35    1
    23    12    16    1
    24    12    13    1
    25    13    14    2
    26    13    36    1
    27    14    15    1
    28    14    37    1
    29    15    16    2
    30    16    17    1
    31    17    38    1
    32    17    39    1
    33    18    26    1
    34    18    19    2
    35    19    20    1
    36    20    21    1
    37    20    25    2
    38    21    22    1
    39    21    23    1
    40    21    24    1
    41    22    40    1
    42    22    41    1
    43    22    42    1
    44    23    43    1
    45    23    44    1
    46    23    45    1
    47    24    46    1
    48    24    47    1
    49    24    48    1
    50    25    26    1
@<TRIPOS>SUBSTRUCTURE
     1 ZINC000548281822        1 TEMP              0 ****  ****    0 ROOT


##########                                Name:    ZINC001296589646
##########                DOCK_Rotatable_Bonds:                   8
##########                         Heavy_Atoms:                  29
##########                    Molecular_Weight:             398.548
##########                DOCK_Rotatable_Bonds:                   8
##########                       Formal_Charge:          -0.0200008
##########                     HBond_Acceptors:                   6
##########                        HBond_Donors:                   0
##########                         Heavy_Atoms:                  29
##########                          Grid_Score:          -28.709997
##########                     Grid_vdw_energy:          -28.850657
##########                      Grid_es_energy:            0.140660
##########           Internal_energy_repulsive:           18.592791

@<TRIPOS>MOLECULE
ZINC001296589646
 63 66 1 0 0
SMALL
USER_CHARGES


@<TRIPOS>ATOM
      1 C1        -13.1989    3.1832   64.3739 C.3     1  ZINC001296589646   -0.1500
      2 C2        -11.8842    2.4691   64.0536 C.3     1  ZINC001296589646    0.0500
      3 O3        -10.8745    3.4378   63.7634 O.3     1  ZINC001296589646   -0.3600
      4 C4         -9.5509    2.9012   63.7153 C.3     1  ZINC001296589646    0.1800
      5 C5         -9.5264    1.6094   62.9394 C.2     1  ZINC001296589646    0.1500
      6 N6         -9.1473    0.4464   63.3880 N.2     1  ZINC001296589646   -0.2600
      7 N7         -9.2532   -0.4388   62.4622 N.2     1  ZINC001296589646   -0.3200
      8 C8         -9.7093    0.1166   61.3644 C.2     1  ZINC001296589646    0.3600
      9 N9         -9.9532   -0.5212   60.1584 N.3     1  ZINC001296589646   -0.4300
     10 C10        -9.0109   -1.6508   59.9533 C.3     1  ZINC001296589646    0.0300
     11 C11        -9.7323   -2.5275   58.8991 C.3     1  ZINC001296589646   -0.1200
     12 C12       -11.2176   -2.4138   59.3128 C.3     1  ZINC001296589646   -0.1000
     13 H13       -11.5074   -3.2701   59.9215 H       1  ZINC001296589646    0.0800
     14 C14       -12.1085   -2.3190   58.0726 C.3     1  ZINC001296589646   -0.1400
     15 C15       -11.3070   -1.1166   60.1380 C.3     1  ZINC001296589646    0.0500
     16 N16        -9.9035    1.4395   61.6362 N.pl3   1  ZINC001296589646   -0.4600
     17 C17       -10.4030    2.4669   60.7189 C.3     1  ZINC001296589646    0.1000
     18 C18        -9.2759    2.9056   59.7819 C.3     1  ZINC001296589646   -0.1300
     19 C19        -9.8184    3.9169   58.7700 C.3     1  ZINC001296589646   -0.0500
     20 H20       -10.8160    3.6136   58.4525 H       1  ZINC001296589646    0.0800
     21 C21        -9.8883    5.3005   59.4191 C.3     1  ZINC001296589646   -0.1500
     22 C22        -8.9045    3.9691   57.5729 C.ar    1  ZINC001296589646   -0.0800
     23 C23        -7.5374    3.8517   57.7412 C.ar    1  ZINC001296589646   -0.1100
     24 C24        -6.6992    3.8997   56.6431 C.ar    1  ZINC001296589646   -0.1200
     25 C25        -7.2279    4.0646   55.3766 C.ar    1  ZINC001296589646   -0.1200
     26 C26        -8.5950    4.1811   55.2081 C.ar    1  ZINC001296589646   -0.1200
     27 C27        -9.4336    4.1289   56.3058 C.ar    1  ZINC001296589646   -0.1200
     28 C28        -8.9828    2.7021   65.1469 C.3     1  ZINC001296589646   -0.1400
     29 C29        -8.4419    4.1223   65.4489 C.3     1  ZINC001296589646    0.0600
     30 O30        -7.9214    4.5992   64.1979 O.3     1  ZINC001296589646   -0.3700
     31 C31        -8.5650    3.9239   63.1109 C.3     1  ZINC001296589646    0.0400
     32 H32       -13.0836    3.7634   65.2893 H       1  ZINC001296589646    0.0600
     33 H33       -13.4601    3.8495   63.5517 H       1  ZINC001296589646    0.0700
     34 H34       -13.9897    2.4452   64.5087 H       1  ZINC001296589646    0.0700
     35 H35       -11.5776    1.8704   64.9113 H       1  ZINC001296589646    0.0500
     36 H36       -12.0243    1.8202   63.1891 H       1  ZINC001296589646    0.0600
     37 H37        -8.0573   -1.2910   59.5671 H       1  ZINC001296589646    0.0900
     38 H38        -8.8669   -2.2049   60.8809 H       1  ZINC001296589646    0.0600
     39 H39        -9.5796   -2.1288   57.8962 H       1  ZINC001296589646    0.0800
     40 H40        -9.3931   -3.5616   58.9600 H       1  ZINC001296589646    0.0800
     41 H41       -11.9962   -3.2235   57.4746 H       1  ZINC001296589646    0.0600
     42 H42       -13.1489   -2.2135   58.3798 H       1  ZINC001296589646    0.0600
     43 H43       -11.8150   -1.4527   57.4796 H       1  ZINC001296589646    0.0600
     44 H44       -11.6277   -1.3446   61.1545 H       1  ZINC001296589646    0.0800
     45 H45       -12.0091   -0.4265   59.6702 H       1  ZINC001296589646    0.0900
     46 H46       -11.2263    2.0604   60.1315 H       1  ZINC001296589646    0.1100
     47 H47       -10.7544    3.3254   61.2914 H       1  ZINC001296589646    0.1000
     48 H48        -8.4780    3.3666   60.3642 H       1  ZINC001296589646    0.0800
     49 H49        -8.8842    2.0367   59.2531 H       1  ZINC001296589646    0.0700
     50 H50       -10.2747    6.0210   58.6981 H       1  ZINC001296589646    0.0600
     51 H51       -10.5493    5.2627   60.2849 H       1  ZINC001296589646    0.0600
     52 H52        -8.8906    5.6038   59.7366 H       1  ZINC001296589646    0.0600
     53 H53        -7.1243    3.7228   58.7308 H       1  ZINC001296589646    0.1200
     54 H54        -5.6311    3.8086   56.7748 H       1  ZINC001296589646    0.1200
     55 H55        -6.5729    4.1028   54.5188 H       1  ZINC001296589646    0.1200
     56 H56        -9.0080    4.3103   54.2187 H       1  ZINC001296589646    0.1200
     57 H57       -10.5017    4.2199   56.1742 H       1  ZINC001296589646    0.1200
     58 H58        -9.7708    2.4248   65.8472 H       1  ZINC001296589646    0.1000
     59 H59        -8.1788    1.9662   65.1518 H       1  ZINC001296589646    0.1000
     60 H60        -9.2487    4.7690   65.7941 H       1  ZINC001296589646    0.0700
     61 H61        -7.6488    4.0744   66.1950 H       1  ZINC001296589646    0.0900
     62 H62        -7.8213    3.4069   62.5045 H       1  ZINC001296589646    0.1000
     63 H63        -9.1080    4.6434   62.4981 H       1  ZINC001296589646    0.0800
@<TRIPOS>BOND
     1     1     2    1
     2     1    32    1
     3     1    33    1
     4     1    34    1
     5     2     3    1
     6     2    35    1
     7     2    36    1
     8     3     4    1
     9     4    31    1
    10     4     5    1
    11     4    28    1
    12     5    16    1
    13     5     6    2
    14     6     7    1
    15     7     8    2
    16     8     9    1
    17     8    16    1
    18     9    15    1
    19     9    10    1
    20    10    11    1
    21    10    37    1
    22    10    38    1
    23    11    12    1
    24    11    39    1
    25    11    40    1
    26    12    13    1
    27    12    14    1
    28    12    15    1
    29    14    41    1
    30    14    42    1
    31    14    43    1
    32    15    44    1
    33    15    45    1
    34    16    17    1
    35    17    18    1
    36    17    46    1
    37    17    47    1
    38    18    19    1
    39    18    48    1
    40    18    49    1
    41    19    20    1
    42    19    21    1
    43    19    22    1
    44    21    50    1
    45    21    51    1
    46    21    52    1
    47    22    27   ar
    48    22    23   ar
    49    23    24   ar
    50    23    53    1
    51    24    25   ar
    52    24    54    1
    53    25    26   ar
    54    25    55    1
    55    26    27   ar
    56    26    56    1
    57    27    57    1
    58    28    29    1
    59    28    58    1
    60    28    59    1
    61    29    30    1
    62    29    60    1
    63    29    61    1
    64    30    31    1
    65    31    62    1
    66    31    63    1
@<TRIPOS>SUBSTRUCTURE
     1 ZINC001296589646        1 TEMP              0 ****  ****    0 ROOT


##########                                Name:    ZINC001060578637
##########                DOCK_Rotatable_Bonds:                  10
##########                         Heavy_Atoms:                  25
##########                    Molecular_Weight:             345.401
##########                DOCK_Rotatable_Bonds:                  10
##########                       Formal_Charge:          -0.0400001
##########                     HBond_Acceptors:                   8
##########                        HBond_Donors:                   3
##########                         Heavy_Atoms:                  25
##########                          Grid_Score:          -28.704803
##########                     Grid_vdw_energy:          -26.992424
##########                      Grid_es_energy:           -1.712379
##########           Internal_energy_repulsive:           15.925008

@<TRIPOS>MOLECULE
ZINC001060578637
 48 49 1 0 0
SMALL
USER_CHARGES


@<TRIPOS>ATOM
      1 C1         -7.4364    5.1970   63.6109 C.3     1  ZINC001060578637   -0.1500
      2 C2         -7.1970    5.9858   64.8997 C.3     1  ZINC001060578637   -0.1300
      3 C3         -6.8305    5.0198   66.0283 C.3     1  ZINC001060578637    0.0700
      4 H4         -6.6598    5.5818   66.9465 H       1  ZINC001060578637    0.0900
      5 O5         -5.6423    4.3072   65.6782 O.3     1  ZINC001060578637   -0.3600
      6 C6         -4.5068    5.1453   65.4536 C.3     1  ZINC001060578637    0.0300
      7 C7         -7.9582    4.0428   66.2394 C.2     1  ZINC001060578637    0.5000
      8 O8         -8.8462    4.3019   67.0238 O.2     1  ZINC001060578637   -0.5200
      9 N9         -7.9800    2.8810   65.5566 N.am    1  ZINC001060578637   -0.7300
     10 C10        -9.0772    1.9319   65.7606 C.3     1  ZINC001060578637    0.1600
     11 C11        -9.3181    1.1615   64.4880 C.ar    1  ZINC001060578637   -0.1100
     12 C12        -8.5181    0.0790   64.1734 C.ar    1  ZINC001060578637   -0.0900
     13 C13        -8.7391   -0.6277   63.0060 C.ar    1  ZINC001060578637   -0.1100
     14 C14        -9.7605   -0.2521   62.1536 C.ar    1  ZINC001060578637   -0.0900
     15 C15       -10.0012   -1.0222   60.8807 C.3     1  ZINC001060578637    0.1800
     16 H16        -9.5126   -1.9944   60.9464 H       1  ZINC001060578637    0.1000
     17 C17        -9.4273   -0.2420   59.6963 C.3     1  ZINC001060578637   -0.1600
     18 N18       -11.4412   -1.2113   60.6892 N.am    1  ZINC001060578637   -0.7000
     19 C19       -11.9003   -2.3264   60.0872 C.2     1  ZINC001060578637    0.6100
     20 O20       -11.1191   -3.1747   59.7016 O.2     1  ZINC001060578637   -0.5300
     21 C21       -13.3498   -2.5175   59.8960 C.2     1  ZINC001060578637    0.1200
     22 N22       -14.3040   -1.6883   60.2613 N.2     1  ZINC001060578637   -0.2400
     23 N23       -15.4465   -2.1797   59.9347 N.2     1  ZINC001060578637   -0.2900
     24 C24       -15.2831   -3.3402   59.3477 C.2     1  ZINC001060578637    0.1900
     25 N25       -13.9597   -3.5904   59.2986 N.pl3   1  ZINC001060578637   -0.5500
     26 C26       -10.5614    0.8295   62.4689 C.ar    1  ZINC001060578637   -0.1100
     27 C27       -10.3428    1.5338   63.6381 C.ar    1  ZINC001060578637   -0.0900
     28 H28        -7.6670    5.8876   62.7998 H       1  ZINC001060578637    0.0600
     29 H29        -6.5404    4.6290   63.3607 H       1  ZINC001060578637    0.0500
     30 H30        -8.2724    4.5123   63.7539 H       1  ZINC001060578637    0.0600
     31 H31        -6.3812    6.6923   64.7471 H       1  ZINC001060578637    0.0800
     32 H32        -8.1033    6.5294   65.1668 H       1  ZINC001060578637    0.0800
     33 H33        -3.6290    4.5260   65.2688 H       1  ZINC001060578637    0.0900
     34 H34        -4.6908    5.7822   64.5884 H       1  ZINC001060578637    0.0500
     35 H35        -4.3345    5.7667   66.3323 H       1  ZINC001060578637    0.0400
     36 H36        -7.2691    2.6732   64.9302 H       1  ZINC001060578637    0.4000
     37 H37        -8.8148    1.2395   66.5604 H       1  ZINC001060578637    0.0800
     38 H38        -9.9819    2.4755   66.0329 H       1  ZINC001060578637    0.0800
     39 H39        -7.7202   -0.2145   64.8394 H       1  ZINC001060578637    0.1300
     40 H40        -8.1137   -1.4730   62.7598 H       1  ZINC001060578637    0.1300
     41 H41        -9.9159    0.7301   59.6307 H       1  ZINC001060578637    0.0600
     42 H42        -8.3559   -0.1013   59.8388 H       1  ZINC001060578637    0.0700
     43 H43        -9.6014   -0.7990   58.7757 H       1  ZINC001060578637    0.0700
     44 H44       -12.0643   -0.5341   60.9958 H       1  ZINC001060578637    0.4100
     45 H45       -16.0672   -3.9787   58.9685 H       1  ZINC001060578637    0.2300
     46 H46       -13.5272   -4.3728   58.9223 H       1  ZINC001060578637    0.4400
     47 H47       -11.3596    1.1227   61.8031 H       1  ZINC001060578637    0.1300
     48 H48       -10.9685    2.3790   63.8844 H       1  ZINC001060578637    0.1300
@<TRIPOS>BOND
     1     1     2    1
     2     1    28    1
     3     1    29    1
     4     1    30    1
     5     2     3    1
     6     2    31    1
     7     2    32    1
     8     3     4    1
     9     3     5    1
    10     3     7    1
    11     5     6    1
    12     6    33    1
    13     6    34    1
    14     6    35    1
    15     7     8    2
    16     7     9   am
    17     9    10    1
    18     9    36    1
    19    10    11    1
    20    10    37    1
    21    10    38    1
    22    11    27   ar
    23    11    12   ar
    24    12    13   ar
    25    12    39    1
    26    13    14   ar
    27    13    40    1
    28    14    15    1
    29    14    26   ar
    30    15    16    1
    31    15    17    1
    32    15    18    1
    33    17    41    1
    34    17    42    1
    35    17    43    1
    36    18    19   am
    37    18    44    1
    38    19    20    2
    39    19    21    1
    40    21    25    1
    41    21    22    2
    42    22    23    1
    43    23    24    2
    44    24    25    1
    45    24    45    1
    46    25    46    1
    47    26    27   ar
    48    26    47    1
    49    27    48    1
@<TRIPOS>SUBSTRUCTURE
     1 ZINC001060578637        1 TEMP              0 ****  ****    0 ROOT


##########                                Name:    ZINC000446721380
##########                DOCK_Rotatable_Bonds:                   8
##########                         Heavy_Atoms:                  26
##########                    Molecular_Weight:             419.318
##########                DOCK_Rotatable_Bonds:                   8
##########                       Formal_Charge:           0.0199992
##########                     HBond_Acceptors:                   5
##########                        HBond_Donors:                   2
##########                         Heavy_Atoms:                  26
##########                          Grid_Score:          -28.650192
##########                     Grid_vdw_energy:          -29.681553
##########                      Grid_es_energy:            1.031361
##########           Internal_energy_repulsive:          161.148010

@<TRIPOS>MOLECULE
ZINC000446721380
 49 51 1 0 0
SMALL
USER_CHARGES


@<TRIPOS>ATOM
      1 C1         -8.4756   -0.5091   64.8570 C.3     1  ZINC000446721380   -0.1200
      2 C2         -8.8711    0.1312   63.5514 C.ar    1  ZINC000446721380   -0.0300
      3 C3         -9.1733    1.4795   63.5070 C.ar    1  ZINC000446721380   -0.1600
      4 C4         -9.5366    2.0701   62.3106 C.ar    1  ZINC000446721380   -0.0500
      5 C5         -9.5983    1.3138   61.1564 C.ar    1  ZINC000446721380   -0.1500
      6 C6         -9.9938    1.9581   59.8528 C.3     1  ZINC000446721380    0.1900
      7 N7         -8.7983    2.4713   59.1793 N.am    1  ZINC000446721380   -0.7300
      8 C8         -8.9131    3.1170   58.0019 C.2     1  ZINC000446721380    0.7100
      9 O9        -10.0089    3.2749   57.4994 O.2     1  ZINC000446721380   -0.5700
     10 N10        -7.8131    3.5877   57.3815 N.am    1  ZINC000446721380   -0.6900
     11 C11        -7.9323    4.2584   56.1585 C.ar    1  ZINC000446721380    0.2000
     12 C12        -9.1833    4.4454   55.5868 C.ar    1  ZINC000446721380   -0.1200
     13 C13        -9.2978    5.1081   54.3800 C.ar    1  ZINC000446721380   -0.0800
     14 C14        -8.1682    5.5851   53.7413 C.ar    1  ZINC000446721380   -0.1300
     15 C15        -6.9200    5.4003   54.3074 C.ar    1  ZINC000446721380   -0.0700
     16 C16        -6.7990    4.7434   55.5169 C.ar    1  ZINC000446721380   -0.1300
     17 Br17       -5.0922    4.4916   56.2910 Br      1  ZINC000446721380   -0.0500
     18 C18        -9.2954   -0.0397   61.1983 C.ar    1  ZINC000446721380    0.1500
     19 O19        -9.3550   -0.7859   60.0641 O.3     1  ZINC000446721380   -0.3100
     20 C20       -10.2329   -1.9133   60.0746 C.3     1  ZINC000446721380    0.0700
     21 C21       -11.5251   -1.5604   59.3353 C.3     1  ZINC000446721380   -0.1200
     22 H22       -11.3145   -0.8975   58.4961 H       1  ZINC000446721380    0.1000
     23 C23       -12.5407   -0.9045   60.3024 C.3     1  ZINC000446721380   -0.1500
     24 C24       -13.8770   -1.5518   59.8577 C.3     1  ZINC000446721380    0.0500
     25 O25       -13.5019   -2.9067   59.5288 O.3     1  ZINC000446721380   -0.3800
     26 C26       -12.2342   -2.8389   58.8481 C.3     1  ZINC000446721380    0.0500
     27 C27        -8.9259   -0.6285   62.3987 C.ar    1  ZINC000446721380   -0.2100
     28 H28        -7.3946   -0.4446   64.9806 H       1  ZINC000446721380    0.0800
     29 H29        -8.9671    0.0100   65.6799 H       1  ZINC000446721380    0.0700
     30 H30        -8.7792   -1.5561   64.8549 H       1  ZINC000446721380    0.0700
     31 H31        -9.1260    2.0725   64.4085 H       1  ZINC000446721380    0.1300
     32 H32        -9.7725    3.1235   62.2786 H       1  ZINC000446721380    0.1300
     33 H33       -10.4810    1.2199   59.2158 H       1  ZINC000446721380    0.0800
     34 H34       -10.6821    2.7804   60.0480 H       1  ZINC000446721380    0.0800
     35 H35        -7.9242    2.3464   59.5808 H       1  ZINC000446721380    0.4000
     36 H36        -6.9388    3.4618   57.7824 H       1  ZINC000446721380    0.4100
     37 H37       -10.0663    4.0729   56.0848 H       1  ZINC000446721380    0.1500
     38 H38       -10.2710    5.2534   53.9347 H       1  ZINC000446721380    0.1300
     39 H39        -8.2606    6.1027   52.7979 H       1  ZINC000446721380    0.1300
     40 H40        -6.0394    5.7734   53.8057 H       1  ZINC000446721380    0.1400
     41 H41        -9.7491   -2.7551   59.5790 H       1  ZINC000446721380    0.0700
     42 H42       -10.4656   -2.1831   61.1048 H       1  ZINC000446721380    0.0700
     43 H43       -12.3114   -1.1575   61.3375 H       1  ZINC000446721380    0.0800
     44 H44       -12.5672    0.1763   60.1642 H       1  ZINC000446721380    0.0900
     45 H45       -14.5992   -1.5409   60.6740 H       1  ZINC000446721380    0.1000
     46 H46       -14.2782   -1.0414   58.9821 H       1  ZINC000446721380    0.0600
     47 H47       -12.3939   -2.7901   57.7710 H       1  ZINC000446721380    0.0600
     48 H48       -11.6329   -3.7135   59.0964 H       1  ZINC000446721380    0.0900
     49 H49        -8.6897   -1.6818   62.4338 H       1  ZINC000446721380    0.1300
@<TRIPOS>BOND
     1     1     2    1
     2     1    28    1
     3     1    29    1
     4     1    30    1
     5     2    27   ar
     6     2     3   ar
     7     3     4   ar
     8     3    31    1
     9     4     5   ar
    10     4    32    1
    11     5     6    1
    12     5    18   ar
    13     6     7    1
    14     6    33    1
    15     6    34    1
    16     7     8   am
    17     7    35    1
    18     8     9    2
    19     8    10   am
    20    10    11    1
    21    10    36    1
    22    11    16   ar
    23    11    12   ar
    24    12    13   ar
    25    12    37    1
    26    13    14   ar
    27    13    38    1
    28    14    15   ar
    29    14    39    1
    30    15    16   ar
    31    15    40    1
    32    16    17    1
    33    18    19    1
    34    18    27   ar
    35    19    20    1
    36    20    21    1
    37    20    41    1
    38    20    42    1
    39    21    22    1
    40    21    26    1
    41    21    23    1
    42    23    24    1
    43    23    43    1
    44    23    44    1
    45    24    25    1
    46    24    45    1
    47    24    46    1
    48    25    26    1
    49    26    47    1
    50    26    48    1
    51    27    49    1
@<TRIPOS>SUBSTRUCTURE
     1 ZINC000446721380        1 TEMP              0 ****  ****    0 ROOT


##########                                Name:    ZINC001342629575
##########                DOCK_Rotatable_Bonds:                   9
##########                         Heavy_Atoms:                  29
##########                    Molecular_Weight:             396.533
##########                DOCK_Rotatable_Bonds:                   9
##########                       Formal_Charge:         -0.00999976
##########                     HBond_Acceptors:                   6
##########                        HBond_Donors:                   0
##########                         Heavy_Atoms:                  29
##########                          Grid_Score:          -28.574688
##########                     Grid_vdw_energy:          -26.276148
##########                      Grid_es_energy:           -2.298540
##########           Internal_energy_repulsive:           23.679832

@<TRIPOS>MOLECULE
ZINC001342629575
 61 64 1 0 0
SMALL
USER_CHARGES


@<TRIPOS>ATOM
      1 C1        -15.7610   -2.9898   58.1170 C.2     1  ZINC001342629575   -0.1800
      2 C2        -14.7356   -3.3577   58.8444 C.2     1  ZINC001342629575   -0.1600
      3 C3        -14.2614   -2.4822   59.9757 C.3     1  ZINC001342629575   -0.0800
      4 C4        -13.2125   -1.4982   59.4539 C.3     1  ZINC001342629575    0.0500
      5 H5        -13.6339   -0.9203   58.6312 H       1  ZINC001342629575    0.0900
      6 C6        -12.8021   -0.5657   60.5643 C.2     1  ZINC001342629575    0.2000
      7 N7        -13.1610   -0.6481   61.8141 N.2     1  ZINC001342629575   -0.2700
      8 N8        -12.6295    0.3078   62.4892 N.2     1  ZINC001342629575   -0.3000
      9 C9        -11.8970    1.0575   61.6998 C.2     1  ZINC001342629575    0.3400
     10 N10       -11.1719    2.1793   62.0687 N.3     1  ZINC001342629575   -0.4300
     11 C11        -9.7606    1.8259   62.3692 C.3     1  ZINC001342629575    0.0400
     12 C12        -9.2479    2.9864   63.2489 C.3     1  ZINC001342629575   -0.1200
     13 C13       -10.5134    3.5942   63.8882 C.3     1  ZINC001342629575   -0.1200
     14 C14       -11.6843    2.7497   63.3412 C.3     1  ZINC001342629575    0.0700
     15 H15       -11.9374    1.9528   64.0403 H       1  ZINC001342629575    0.0900
     16 C16       -12.9040    3.6354   63.0789 C.3     1  ZINC001342629575    0.1000
     17 H17       -13.7838    3.0135   62.9140 H       1  ZINC001342629575    0.0700
     18 C18       -12.6505    4.5228   61.8414 C.3     1  ZINC001342629575   -0.1400
     19 C19       -13.2916    5.8720   62.2662 C.3     1  ZINC001342629575   -0.1600
     20 C20       -12.9918    5.8742   63.7865 C.3     1  ZINC001342629575    0.0500
     21 O21       -13.1246    4.5023   64.1976 O.3     1  ZINC001342629575   -0.3700
     22 N22       -11.9794    0.5203   60.4482 N.pl3   1  ZINC001342629575   -0.4600
     23 C23       -11.3293    1.0111   59.2305 C.3     1  ZINC001342629575    0.1100
     24 C24       -12.2472    2.0163   58.5320 C.3     1  ZINC001342629575    0.0500
     25 O25       -11.6126    2.4960   57.3449 O.3     1  ZINC001342629575   -0.3800
     26 C26       -10.3651    3.1529   57.5777 C.3     1  ZINC001342629575    0.0300
     27 C27       -12.0072   -2.2602   58.9666 C.ar    1  ZINC001342629575   -0.0900
     28 C28       -11.0113   -2.6201   59.8553 C.ar    1  ZINC001342629575   -0.0900
     29 C29        -9.9057   -3.3191   59.4084 C.ar    1  ZINC001342629575   -0.1200
     30 C30        -9.7960   -3.6588   58.0729 C.ar    1  ZINC001342629575   -0.1200
     31 C31       -10.7923   -3.2998   57.1844 C.ar    1  ZINC001342629575   -0.1200
     32 C32       -11.9000   -2.6045   57.6322 C.ar    1  ZINC001342629575   -0.1100
     33 H33       -16.1008   -3.6172   57.3062 H       1  ZINC001342629575    0.1000
     34 H34       -16.2696   -2.0613   58.3309 H       1  ZINC001342629575    0.1000
     35 H35       -14.2299   -4.2883   58.6333 H       1  ZINC001342629575    0.1000
     36 H36       -15.1063   -1.9291   60.3858 H       1  ZINC001342629575    0.0900
     37 H37       -13.8208   -3.1033   60.7555 H       1  ZINC001342629575    0.0800
     38 H38        -9.7127    0.8844   62.9163 H       1  ZINC001342629575    0.0600
     39 H39        -9.1805    1.7617   61.4487 H       1  ZINC001342629575    0.0800
     40 H40        -8.5777    2.6087   64.0210 H       1  ZINC001342629575    0.0800
     41 H41        -8.7391    3.7302   62.6357 H       1  ZINC001342629575    0.0800
     42 H42       -10.4644    3.5147   64.9742 H       1  ZINC001342629575    0.0800
     43 H43       -10.6257    4.6362   63.5888 H       1  ZINC001342629575    0.0800
     44 H44       -11.5821    4.6408   61.6609 H       1  ZINC001342629575    0.0900
     45 H45       -13.1507    4.1153   60.9628 H       1  ZINC001342629575    0.0800
     46 H46       -12.8061    6.7116   61.7689 H       1  ZINC001342629575    0.0800
     47 H47       -14.3652    5.8735   62.0776 H       1  ZINC001342629575    0.0800
     48 H48       -11.9779    6.2290   63.9716 H       1  ZINC001342629575    0.0600
     49 H49       -13.7139    6.4978   64.3136 H       1  ZINC001342629575    0.0900
     50 H50       -10.3893    1.4976   59.4912 H       1  ZINC001342629575    0.1000
     51 H51       -11.1316    0.1736   58.5614 H       1  ZINC001342629575    0.1100
     52 H52       -13.1868    1.5295   58.2703 H       1  ZINC001342629575    0.0600
     53 H53       -12.4457    2.8533   59.2015 H       1  ZINC001342629575    0.0600
     54 H54        -9.9477    3.4872   56.6278 H       1  ZINC001342629575    0.0900
     55 H55       -10.5232    4.0132   58.2280 H       1  ZINC001342629575    0.0400
     56 H56        -9.6726    2.4593   58.0547 H       1  ZINC001342629575    0.0400
     57 H57       -11.0969   -2.3547   60.8986 H       1  ZINC001342629575    0.1300
     58 H58        -9.1273   -3.5996   60.1026 H       1  ZINC001342629575    0.1200
     59 H59        -8.9319   -4.2043   57.7236 H       1  ZINC001342629575    0.1200
     60 H60       -10.7065   -3.5649   56.1410 H       1  ZINC001342629575    0.1200
     61 H61       -12.6784   -2.3241   56.9380 H       1  ZINC001342629575    0.1200
@<TRIPOS>BOND
     1     1     2    2
     2     1    33    1
     3     1    34    1
     4     2     3    1
     5     2    35    1
     6     3     4    1
     7     3    36    1
     8     3    37    1
     9     4     5    1
    10     4     6    1
    11     4    27    1
    12     6    22    1
    13     6     7    2
    14     7     8    1
    15     8     9    2
    16     9    10    1
    17     9    22    1
    18    10    14    1
    19    10    11    1
    20    11    12    1
    21    11    38    1
    22    11    39    1
    23    12    13    1
    24    12    40    1
    25    12    41    1
    26    13    14    1
    27    13    42    1
    28    13    43    1
    29    14    15    1
    30    14    16    1
    31    16    17    1
    32    16    21    1
    33    16    18    1
    34    18    19    1
    35    18    44    1
    36    18    45    1
    37    19    20    1
    38    19    46    1
    39    19    47    1
    40    20    21    1
    41    20    48    1
    42    20    49    1
    43    22    23    1
    44    23    24    1
    45    23    50    1
    46    23    51    1
    47    24    25    1
    48    24    52    1
    49    24    53    1
    50    25    26    1
    51    26    54    1
    52    26    55    1
    53    26    56    1
    54    27    32   ar
    55    27    28   ar
    56    28    29   ar
    57    28    57    1
    58    29    30   ar
    59    29    58    1
    60    30    31   ar
    61    30    59    1
    62    31    32   ar
    63    31    60    1
    64    32    61    1
@<TRIPOS>SUBSTRUCTURE
     1 ZINC001342629575        1 TEMP              0 ****  ****    0 ROOT


##########                                Name:    ZINC000915315870
##########                DOCK_Rotatable_Bonds:                   4
##########                         Heavy_Atoms:                  24
##########                    Molecular_Weight:             357.381
##########                DOCK_Rotatable_Bonds:                   4
##########                       Formal_Charge:           0.0300002
##########                     HBond_Acceptors:                   9
##########                        HBond_Donors:                   1
##########                         Heavy_Atoms:                  24
##########                          Grid_Score:          -28.563330
##########                     Grid_vdw_energy:          -28.938446
##########                      Grid_es_energy:            0.375117
##########           Internal_energy_repulsive:           38.792282

@<TRIPOS>MOLECULE
ZINC000915315870
 41 43 1 0 0
SMALL
USER_CHARGES


@<TRIPOS>ATOM
      1 C1         -7.8115   -0.4400   65.7978 C.3     1  ZINC000915315870    0.0300
      2 O2         -8.5450    0.7828   65.7040 O.3     1  ZINC000915315870   -0.3200
      3 C3         -8.9777    1.1499   64.4678 C.ar    1  ZINC000915315870    0.0800
      4 C4         -8.7641    0.3146   63.3796 C.ar    1  ZINC000915315870    0.0900
      5 F5         -8.1265   -0.8647   63.5472 F       1  ZINC000915315870   -0.1100
      6 C6         -9.2055    0.6909   62.1233 C.ar    1  ZINC000915315870   -0.0500
      7 C7         -9.8579    1.8975   61.9509 C.ar    1  ZINC000915315870   -0.6300
      8 S8        -10.4179    2.3733   60.3495 S.o2    1  ZINC000915315870    2.7000
      9 O9        -11.7529    2.8323   60.5111 O.2     1  ZINC000915315870   -0.9400
     10 O10        -9.3855    3.1691   59.7836 O.2     1  ZINC000915315870   -0.9400
     11 N11       -10.5042    0.9976   59.4316 N.am    1  ZINC000915315870   -1.1100
     12 C12       -11.3823   -0.1016   59.8401 C.3     1  ZINC000915315870    0.2400
     13 H13       -11.4190   -0.1580   60.9280 H       1  ZINC000915315870    0.0900
     14 C14       -12.7937    0.1302   59.2860 C.3     1  ZINC000915315870   -0.1400
     15 C15       -13.6449   -1.1232   59.5009 C.3     1  ZINC000915315870   -0.1100
     16 C16       -13.1812   -2.2339   58.5502 C.3     1  ZINC000915315870   -0.0400
     17 C17       -11.6847   -2.3766   58.6862 C.2     1  ZINC000915315870    0.0900
     18 N18       -10.9310   -3.3660   58.3035 N.2     1  ZINC000915315870   -0.2900
     19 N19        -9.6038   -3.0595   58.6404 N.pl3   1  ZINC000915315870   -0.3800
     20 C20        -8.4340   -3.9043   58.3874 C.3     1  ZINC000915315870    0.1000
     21 C21        -9.5943   -1.8473   59.2391 C.2     1  ZINC000915315870    0.0800
     22 C22       -10.8632   -1.4029   59.2800 C.2     1  ZINC000915315870   -0.2500
     23 C23       -10.0726    2.7313   63.0326 C.ar    1  ZINC000915315870   -0.0500
     24 C24        -9.6387    2.3581   64.2925 C.ar    1  ZINC000915315870    0.1000
     25 F25        -9.8488    3.1734   65.3491 F       1  ZINC000915315870   -0.1100
     26 H26        -7.5270   -0.6141   66.8356 H       1  ZINC000915315870    0.1100
     27 H27        -8.4333   -1.2643   65.4485 H       1  ZINC000915315870    0.0600
     28 H28        -6.9151   -0.3743   65.1814 H       1  ZINC000915315870    0.0500
     29 H29        -9.0396    0.0415   61.2764 H       1  ZINC000915315870    0.1700
     30 H30        -9.9734    0.9196   58.6235 H       1  ZINC000915315870    0.4200
     31 H31       -13.2524    0.9730   59.8031 H       1  ZINC000915315870    0.0900
     32 H32       -12.7333    0.3492   58.2200 H       1  ZINC000915315870    0.0800
     33 H33       -13.5392   -1.4609   60.5318 H       1  ZINC000915315870    0.0700
     34 H34       -14.6909   -0.8895   59.3023 H       1  ZINC000915315870    0.0800
     35 H35       -13.6660   -3.1728   58.8175 H       1  ZINC000915315870    0.0800
     36 H36       -13.4335   -1.9682   57.5236 H       1  ZINC000915315870    0.0900
     37 H37        -8.0162   -3.6629   57.4101 H       1  ZINC000915315870    0.0800
     38 H38        -7.6836   -3.7259   59.1575 H       1  ZINC000915315870    0.0900
     39 H39        -8.7320   -4.9526   58.4063 H       1  ZINC000915315870    0.0900
     40 H40        -8.7250   -1.3293   59.6165 H       1  ZINC000915315870    0.1700
     41 H41       -10.5829    3.6730   62.8949 H       1  ZINC000915315870    0.1700
@<TRIPOS>BOND
     1     1     2    1
     2     1    26    1
     3     1    27    1
     4     1    28    1
     5     2     3    1
     6     3    24   ar
     7     3     4   ar
     8     4     5    1
     9     4     6   ar
    10     6     7   ar
    11     6    29    1
    12     7     8    1
    13     7    23   ar
    14     8     9    2
    15     8    10    2
    16     8    11   am
    17    11    12    1
    18    11    30    1
    19    12    13    1
    20    12    22    1
    21    12    14    1
    22    14    15    1
    23    14    31    1
    24    14    32    1
    25    15    16    1
    26    15    33    1
    27    15    34    1
    28    16    17    1
    29    16    35    1
    30    16    36    1
    31    17    22    1
    32    17    18    2
    33    18    19    1
    34    19    20    1
    35    19    21    1
    36    20    37    1
    37    20    38    1
    38    20    39    1
    39    21    22    2
    40    21    40    1
    41    23    24   ar
    42    23    41    1
    43    24    25    1
@<TRIPOS>SUBSTRUCTURE
     1 ZINC000915315870        1 TEMP              0 ****  ****    0 ROOT


##########                                Name:    ZINC000461336108
##########                DOCK_Rotatable_Bonds:                   5
##########                         Heavy_Atoms:                  26
##########                    Molecular_Weight:             373.522
##########                DOCK_Rotatable_Bonds:                   5
##########                       Formal_Charge:        -3.42727e-07
##########                     HBond_Acceptors:                   7
##########                        HBond_Donors:                   0
##########                         Heavy_Atoms:                  26
##########                          Grid_Score:          -28.509977
##########                     Grid_vdw_energy:          -25.629709
##########                      Grid_es_energy:           -2.880268
##########           Internal_energy_repulsive:           11.647305

@<TRIPOS>MOLECULE
ZINC000461336108
 53 56 1 0 0
SMALL
USER_CHARGES


@<TRIPOS>ATOM
      1 C1        -14.1356    1.3972   58.6737 C.3     1  ZINC000461336108   -0.1300
      2 C2        -14.3062   -0.0257   59.2095 C.3     1  ZINC000461336108    0.0700
      3 H3        -15.0658   -0.0292   59.9913 H       1  ZINC000461336108    0.0800
      4 C4        -14.7377   -0.9314   58.0910 C.2     1  ZINC000461336108    0.5300
      5 O5        -15.5815   -0.5353   57.3151 O.2     1  ZINC000461336108   -0.5300
      6 N6        -14.2300   -2.1558   57.9148 N.am    1  ZINC000461336108   -0.6100
      7 C7        -14.7444   -2.9752   56.8149 C.3     1  ZINC000461336108    0.0700
      8 C8        -13.1854   -2.7124   58.7699 C.3     1  ZINC000461336108    0.1200
      9 C9        -13.1083   -1.9285   60.0813 C.3     1  ZINC000461336108    0.0400
     10 N10       -13.0301   -0.4930   59.7673 N.3     1  ZINC000461336108   -0.4300
     11 C11       -12.6827    0.2426   60.8891 C.2     1  ZINC000461336108    0.3300
     12 N12       -13.4609    0.5283   61.9063 N.2     1  ZINC000461336108   -0.2500
     13 N13       -12.8129    1.2260   62.7694 N.2     1  ZINC000461336108   -0.2800
     14 C14       -11.5929    1.4255   62.3576 C.2     1  ZINC000461336108    0.2000
     15 C15       -10.5198    2.1952   63.0834 C.3     1  ZINC000461336108   -0.0300
     16 C16       -10.0632    1.4015   64.3091 C.3     1  ZINC000461336108   -0.0900
     17 C17        -9.0245    0.3266   63.9028 C.3     1  ZINC000461336108   -0.1200
     18 C18        -8.2581    0.0749   65.2251 C.3     1  ZINC000461336108   -0.1200
     19 C19        -8.1511    1.4712   65.8720 C.3     1  ZINC000461336108   -0.1300
     20 C20        -9.2988    2.3146   65.2897 C.3     1  ZINC000461336108   -0.1200
     21 N21       -11.4650    0.8017   61.1475 N.pl3   1  ZINC000461336108   -0.4900
     22 C22       -10.2710    0.7513   60.3001 C.3     1  ZINC000461336108    0.1700
     23 C23       -10.0062    2.1184   59.7238 C.2     1  ZINC000461336108   -0.2400
     24 C24       -10.9075    3.0959   59.6174 C.2     1  ZINC000461336108   -0.0900
     25 C25       -10.4330    4.2681   59.0544 C.2     1  ZINC000461336108   -0.1400
     26 C26        -9.1463    4.2424   58.7036 C.2     1  ZINC000461336108   -0.2000
     27 S27        -8.4593    2.6714   59.0955 S.3     1  ZINC000461336108    0.1200
     28 H28       -13.3763    1.4024   57.8917 H       1  ZINC000461336108    0.0800
     29 H29       -15.0828    1.7468   58.2628 H       1  ZINC000461336108    0.0800
     30 H30       -13.8263    2.0563   59.4849 H       1  ZINC000461336108    0.0700
     31 H31       -15.5124   -2.4199   56.2764 H       1  ZINC000461336108    0.0900
     32 H32       -13.9299   -3.2221   56.1339 H       1  ZINC000461336108    0.0700
     33 H33       -15.1737   -3.8935   57.2157 H       1  ZINC000461336108    0.0600
     34 H34       -13.4127   -3.7565   58.9854 H       1  ZINC000461336108    0.0900
     35 H35       -12.2264   -2.6517   58.2553 H       1  ZINC000461336108    0.0900
     36 H36       -13.9990   -2.1255   60.6779 H       1  ZINC000461336108    0.0500
     37 H37       -12.2200   -2.2306   60.6360 H       1  ZINC000461336108    0.1100
     38 H38        -9.6722    2.3536   62.4167 H       1  ZINC000461336108    0.0800
     39 H39       -10.9165    3.1592   63.4020 H       1  ZINC000461336108    0.1000
     40 H40       -10.9180    0.9409   64.8043 H       1  ZINC000461336108    0.0900
     41 H41        -9.5216   -0.5827   63.5653 H       1  ZINC000461336108    0.0600
     42 H42        -8.3532    0.7094   63.1341 H       1  ZINC000461336108    0.0600
     43 H43        -8.8200   -0.6018   65.8688 H       1  ZINC000461336108    0.0700
     44 H44        -7.2661   -0.3277   65.0202 H       1  ZINC000461336108    0.0700
     45 H45        -8.2585    1.3907   66.9537 H       1  ZINC000461336108    0.0700
     46 H46        -7.1914    1.9250   65.6244 H       1  ZINC000461336108    0.0600
     47 H47        -8.8961    3.1777   64.7595 H       1  ZINC000461336108    0.0700
     48 H48        -9.9632    2.6435   66.0888 H       1  ZINC000461336108    0.0700
     49 H49        -9.4150    0.4366   60.8971 H       1  ZINC000461336108    0.1200
     50 H50       -10.4303    0.0400   59.4898 H       1  ZINC000461336108    0.1000
     51 H51       -11.9301    2.9813   59.9453 H       1  ZINC000461336108    0.1400
     52 H52       -11.0573    5.1373   58.9098 H       1  ZINC000461336108    0.1500
     53 H53        -8.6079    5.0622   58.2514 H       1  ZINC000461336108    0.1700
@<TRIPOS>BOND
     1     1     2    1
     2     1    28    1
     3     1    29    1
     4     1    30    1
     5     2     3    1
     6     2    10    1
     7     2     4    1
     8     4     5    2
     9     4     6   am
    10     6     7    1
    11     6     8    1
    12     7    31    1
    13     7    32    1
    14     7    33    1
    15     8     9    1
    16     8    34    1
    17     8    35    1
    18     9    10    1
    19     9    36    1
    20     9    37    1
    21    10    11    1
    22    11    21    1
    23    11    12    2
    24    12    13    1
    25    13    14    2
    26    14    15    1
    27    14    21    1
    28    15    16    1
    29    15    38    1
    30    15    39    1
    31    16    20    1
    32    16    17    1
    33    16    40    1
    34    17    18    1
    35    17    41    1
    36    17    42    1
    37    18    19    1
    38    18    43    1
    39    18    44    1
    40    19    20    1
    41    19    45    1
    42    19    46    1
    43    20    47    1
    44    20    48    1
    45    21    22    1
    46    22    23    1
    47    22    49    1
    48    22    50    1
    49    23    27    1
    50    23    24    2
    51    24    25    1
    52    24    51    1
    53    25    26    2
    54    25    52    1
    55    26    27    1
    56    26    53    1
@<TRIPOS>SUBSTRUCTURE
     1 ZINC000461336108        1 TEMP              0 ****  ****    0 ROOT


##########                                Name:    ZINC000945148121
##########                DOCK_Rotatable_Bonds:                   6
##########                         Heavy_Atoms:                  24
##########                    Molecular_Weight:             332.446
##########                DOCK_Rotatable_Bonds:                   6
##########                       Formal_Charge:           0.0100009
##########                     HBond_Acceptors:                   6
##########                        HBond_Donors:                   2
##########                         Heavy_Atoms:                  24
##########                          Grid_Score:          -28.495775
##########                     Grid_vdw_energy:          -27.444782
##########                      Grid_es_energy:           -1.050994
##########           Internal_energy_repulsive:           19.135687

@<TRIPOS>MOLECULE
ZINC000945148121
 52 54 1 0 0
SMALL
USER_CHARGES


@<TRIPOS>ATOM
      1 O1        -10.0187   -3.3420   60.2578 O.2     1  ZINC000945148121   -0.5100
      2 C2        -10.4321   -3.0436   59.1573 C.2     1  ZINC000945148121    0.5200
      3 C3         -9.9976   -3.8332   57.9496 C.3     1  ZINC000945148121   -0.0500
      4 C4         -8.4980   -3.7639   57.8170 C.2     1  ZINC000945148121    0.0100
      5 C5         -7.7834   -4.1027   56.7270 C.2     1  ZINC000945148121   -0.0500
      6 N6         -6.4669   -3.8877   57.0340 N.pl3   1  ZINC000945148121   -0.5700
      7 C7         -6.4228   -3.4246   58.3018 C.2     1  ZINC000945148121    0.1800
      8 N8         -7.6417   -3.3484   58.7620 N.2     1  ZINC000945148121   -0.4700
      9 N9        -11.2846   -2.0093   59.0152 N.am    1  ZINC000945148121   -0.7300
     10 C10       -11.7070   -1.2418   60.1893 C.3     1  ZINC000945148121    0.1500
     11 C11       -10.6030   -0.2556   60.5780 C.3     1  ZINC000945148121   -0.1400
     12 C12       -11.0337    0.5208   61.8264 C.3     1  ZINC000945148121    0.1100
     13 N13       -12.3379    1.1462   61.5678 N.am    1  ZINC000945148121   -0.6100
     14 C14       -12.5140    2.4693   61.7544 C.2     1  ZINC000945148121    0.5200
     15 O15       -13.5958    2.9734   61.5388 O.2     1  ZINC000945148121   -0.5400
     16 C16       -11.3667    3.3224   62.2308 C.3     1  ZINC000945148121   -0.1000
     17 C17       -10.4621    3.6457   61.0727 C.3     1  ZINC000945148121   -0.1200
     18 C18        -8.9817    3.7387   61.4890 C.3     1  ZINC000945148121   -0.1200
     19 C19        -8.7824    4.4775   62.8261 C.3     1  ZINC000945148121   -0.1200
     20 C20        -9.6558    5.6969   62.9460 C.3     1  ZINC000945148121   -0.1200
     21 C21       -10.9501    5.3017   63.6860 C.3     1  ZINC000945148121   -0.1200
     22 C22       -11.9100    4.6439   62.8119 C.3     1  ZINC000945148121   -0.1000
     23 C23       -13.4463    0.3019   61.1015 C.3     1  ZINC000945148121    0.1100
     24 C24       -12.9885   -0.4720   59.8613 C.3     1  ZINC000945148121   -0.1400
     25 H25       -10.3044   -4.8728   58.0654 H       1  ZINC000945148121    0.1000
     26 H26       -10.4610   -3.4151   57.0560 H       1  ZINC000945148121    0.1000
     27 H27        -8.1740   -4.4732   55.7908 H       1  ZINC000945148121    0.1800
     28 H28        -5.7075   -4.0396   56.4500 H       1  ZINC000945148121    0.4200
     29 H29        -5.5275   -3.1575   58.8437 H       1  ZINC000945148121    0.2100
     30 H30       -11.6183   -1.7732   58.1356 H       1  ZINC000945148121    0.4000
     31 H31       -11.8946   -1.9222   61.0199 H       1  ZINC000945148121    0.0900
     32 H32        -9.6842   -0.8028   60.7889 H       1  ZINC000945148121    0.0800
     33 H33       -10.4321    0.4410   59.7574 H       1  ZINC000945148121    0.0700
     34 H34       -11.1175   -0.1630   62.6712 H       1  ZINC000945148121    0.0700
     35 H35       -10.2965    1.2920   62.0496 H       1  ZINC000945148121    0.1000
     36 H36       -10.8069    2.7877   62.9982 H       1  ZINC000945148121    0.1000
     37 H37       -10.5674    2.8688   60.3154 H       1  ZINC000945148121    0.0700
     38 H38       -10.7678    4.5991   60.6418 H       1  ZINC000945148121    0.0700
     39 H39        -8.5783    2.7303   61.5810 H       1  ZINC000945148121    0.0600
     40 H40        -8.4301    4.2659   60.7106 H       1  ZINC000945148121    0.0700
     41 H41        -9.0149    3.7955   63.6439 H       1  ZINC000945148121    0.0600
     42 H42        -7.7390    4.7816   62.9090 H       1  ZINC000945148121    0.0600
     43 H43        -9.1322    6.4683   63.5107 H       1  ZINC000945148121    0.0600
     44 H44        -9.9018    6.0703   61.9519 H       1  ZINC000945148121    0.0700
     45 H45       -10.6971    4.6269   64.5038 H       1  ZINC000945148121    0.0600
     46 H46       -11.4079    6.1998   64.1006 H       1  ZINC000945148121    0.0600
     47 H47       -12.1572    5.3156   61.9900 H       1  ZINC000945148121    0.0700
     48 H48       -12.8172    4.4336   63.3786 H       1  ZINC000945148121    0.0700
     49 H49       -13.7267   -0.3997   61.8872 H       1  ZINC000945148121    0.0700
     50 H50       -14.3007    0.9287   60.8463 H       1  ZINC000945148121    0.1000
     51 H51       -12.7950    0.2266   59.0474 H       1  ZINC000945148121    0.0700
     52 H52       -13.7675   -1.1733   59.5620 H       1  ZINC000945148121    0.0800
@<TRIPOS>BOND
     1     1     2    2
     2     2     3    1
     3     2     9   am
     4     3     4    1
     5     3    25    1
     6     3    26    1
     7     4     8    1
     8     4     5    2
     9     5     6    1
    10     5    27    1
    11     6     7    1
    12     6    28    1
    13     7     8    2
    14     7    29    1
    15     9    10    1
    16     9    30    1
    17    10    24    1
    18    10    11    1
    19    10    31    1
    20    11    12    1
    21    11    32    1
    22    11    33    1
    23    12    13    1
    24    12    34    1
    25    12    35    1
    26    13    14   am
    27    13    23    1
    28    14    15    2
    29    14    16    1
    30    16    22    1
    31    16    17    1
    32    16    36    1
    33    17    18    1
    34    17    37    1
    35    17    38    1
    36    18    19    1
    37    18    39    1
    38    18    40    1
    39    19    20    1
    40    19    41    1
    41    19    42    1
    42    20    21    1
    43    20    43    1
    44    20    44    1
    45    21    22    1
    46    21    45    1
    47    21    46    1
    48    22    47    1
    49    22    48    1
    50    23    24    1
    51    23    49    1
    52    23    50    1
    53    24    51    1
    54    24    52    1
@<TRIPOS>SUBSTRUCTURE
     1 ZINC000945148121        1 TEMP              0 ****  ****    0 ROOT


##########                                Name:    ZINC001162683355
##########                DOCK_Rotatable_Bonds:                   5
##########                         Heavy_Atoms:                  25
##########                    Molecular_Weight:             336.437
##########                DOCK_Rotatable_Bonds:                   5
##########                       Formal_Charge:          -0.0100002
##########                     HBond_Acceptors:                   5
##########                        HBond_Donors:                   1
##########                         Heavy_Atoms:                  25
##########                          Grid_Score:          -28.483019
##########                     Grid_vdw_energy:          -27.012587
##########                      Grid_es_energy:           -1.470432
##########           Internal_energy_repulsive:           14.206830

@<TRIPOS>MOLECULE
ZINC001162683355
 49 52 1 0 0
SMALL
USER_CHARGES


@<TRIPOS>ATOM
      1 C1        -14.5071   -4.4640   56.9177 C.3     1  ZINC001162683355    0.0200
      2 N2        -14.7829   -3.0626   57.2609 N.3     1  ZINC001162683355   -0.5400
      3 C3        -13.8631   -2.1570   56.5573 C.3     1  ZINC001162683355    0.0100
      4 C4        -14.2234   -0.7080   56.8962 C.3     1  ZINC001162683355    0.0600
      5 O5        -14.1789   -0.5303   58.3146 O.3     1  ZINC001162683355   -0.3800
      6 C6        -15.0630   -1.3963   59.0314 C.3     1  ZINC001162683355    0.0800
      7 H7        -16.0916   -1.1958   58.7309 H       1  ZINC001162683355    0.0700
      8 C8        -14.9126   -1.1500   60.5339 C.3     1  ZINC001162683355    0.1500
      9 N9        -13.4901   -1.0824   60.8777 N.pl3   1  ZINC001162683355   -0.7300
     10 C10       -12.8255    0.1387   60.8502 C.ar    1  ZINC001162683355    0.4300
     11 C11       -11.4656    0.1852   60.5342 C.ar    1  ZINC001162683355   -0.0100
     12 C12       -10.8242    1.4373   60.5152 C.ar    1  ZINC001162683355   -0.0400
     13 C13       -11.5748    2.5826   60.8131 C.ar    1  ZINC001162683355   -0.1800
     14 C14       -12.8991    2.4430   61.1109 C.ar    1  ZINC001162683355    0.1000
     15 N15       -13.4822    1.2541   61.1229 N.ar    1  ZINC001162683355   -0.5400
     16 C16        -9.4331    1.1752   60.1588 C.2     1  ZINC001162683355   -0.2200
     17 C17        -9.3135   -0.1545   59.9957 C.2     1  ZINC001162683355    0.0800
     18 N18       -10.5188   -0.7597   60.2108 N.pl3   1  ZINC001162683355   -0.4600
     19 C19       -10.7656   -2.2008   60.1171 C.3     1  ZINC001162683355    0.1500
     20 C20        -9.7283   -2.8310   59.2238 C.ar    1  ZINC001162683355   -0.1100
     21 C21       -10.0697   -3.2350   57.9467 C.ar    1  ZINC001162683355   -0.1000
     22 C22        -9.1172   -3.8092   57.1257 C.ar    1  ZINC001162683355   -0.1200
     23 C23        -7.8257   -3.9876   57.5851 C.ar    1  ZINC001162683355   -0.1100
     24 C24        -7.4857   -3.5884   58.8641 C.ar    1  ZINC001162683355   -0.1200
     25 C25        -8.4371   -3.0102   59.6835 C.ar    1  ZINC001162683355   -0.1000
     26 C26       -14.7114   -2.8521   58.7140 C.3     1  ZINC001162683355    0.0300
     27 H27       -13.5100   -4.7338   57.2659 H       1  ZINC001162683355    0.0300
     28 H28       -15.2454   -5.1074   57.3961 H       1  ZINC001162683355    0.0700
     29 H29       -14.5610   -4.5907   55.8363 H       1  ZINC001162683355    0.0700
     30 H30       -13.9513   -2.3120   55.4820 H       1  ZINC001162683355    0.0900
     31 H31       -12.8398   -2.3608   56.8724 H       1  ZINC001162683355    0.0500
     32 H32       -15.2274   -0.4882   56.5331 H       1  ZINC001162683355    0.0600
     33 H33       -13.5093   -0.0344   56.4224 H       1  ZINC001162683355    0.1000
     34 H34       -15.3810   -1.9659   61.0844 H       1  ZINC001162683355    0.0700
     35 H35       -15.3954   -0.2092   60.7981 H       1  ZINC001162683355    0.0800
     36 H36       -13.0119   -1.8895   61.1244 H       1  ZINC001162683355    0.4000
     37 H37       -11.1131    3.5589   60.8069 H       1  ZINC001162683355    0.1300
     38 H38       -13.4844    3.3210   61.3412 H       1  ZINC001162683355    0.1500
     39 H39        -8.6480    1.9091   60.0513 H       1  ZINC001162683355    0.1500
     40 H40        -8.4004   -0.6672   59.7314 H       1  ZINC001162683355    0.1700
     41 H41       -11.7577   -2.3732   59.6998 H       1  ZINC001162683355    0.0900
     42 H42       -10.7073   -2.6446   61.1110 H       1  ZINC001162683355    0.0900
     43 H43       -11.0797   -3.0991   57.5890 H       1  ZINC001162683355    0.1200
     44 H44        -9.3827   -4.1208   56.1263 H       1  ZINC001162683355    0.1300
     45 H45        -7.0822   -4.4386   56.9445 H       1  ZINC001162683355    0.1300
     46 H46        -6.4767   -3.7278   59.2230 H       1  ZINC001162683355    0.1300
     47 H47        -8.1715   -2.6984   60.6828 H       1  ZINC001162683355    0.1200
     48 H48       -13.7016   -3.0671   59.0636 H       1  ZINC001162683355    0.0500
     49 H49       -15.4187   -3.5145   59.2131 H       1  ZINC001162683355    0.0900
@<TRIPOS>BOND
     1     1     2    1
     2     1    27    1
     3     1    28    1
     4     1    29    1
     5     2    26    1
     6     2     3    1
     7     3     4    1
     8     3    30    1
     9     3    31    1
    10     4     5    1
    11     4    32    1
    12     4    33    1
    13     5     6    1
    14     6     7    1
    15     6     8    1
    16     6    26    1
    17     8     9    1
    18     8    34    1
    19     8    35    1
    20     9    10    1
    21     9    36    1
    22    10    15   ar
    23    10    11   ar
    24    11    18    1
    25    11    12   ar
    26    12    13   ar
    27    12    16    1
    28    13    14   ar
    29    13    37    1
    30    14    15   ar
    31    14    38    1
    32    16    17    2
    33    16    39    1
    34    17    18    1
    35    17    40    1
    36    18    19    1
    37    19    20    1
    38    19    41    1
    39    19    42    1
    40    20    25   ar
    41    20    21   ar
    42    21    22   ar
    43    21    43    1
    44    22    23   ar
    45    22    44    1
    46    23    24   ar
    47    23    45    1
    48    24    25   ar
    49    24    46    1
    50    25    47    1
    51    26    48    1
    52    26    49    1
@<TRIPOS>SUBSTRUCTURE
     1 ZINC001162683355        1 TEMP              0 ****  ****    0 ROOT


##########                                Name:    ZINC000179211660
##########                DOCK_Rotatable_Bonds:                   6
##########                         Heavy_Atoms:                  23
##########                    Molecular_Weight:             385.208
##########                DOCK_Rotatable_Bonds:                   6
##########                       Formal_Charge:        -1.78814e-07
##########                     HBond_Acceptors:                   6
##########                        HBond_Donors:                   1
##########                         Heavy_Atoms:                  23
##########                          Grid_Score:          -28.481148
##########                     Grid_vdw_energy:          -26.563778
##########                      Grid_es_energy:           -1.917370
##########           Internal_energy_repulsive:           14.820716

@<TRIPOS>MOLECULE
ZINC000179211660
 38 39 1 0 0
SMALL
USER_CHARGES


@<TRIPOS>ATOM
      1 C1        -13.4870   -3.3939   57.2225 C.3     1  ZINC000179211660    0.0300
      2 O2        -12.8932   -2.2629   57.8630 O.3     1  ZINC000179211660   -0.2700
      3 C3        -11.6227   -2.4107   58.3225 C.ar    1  ZINC000179211660    0.1500
      4 C4        -10.9374   -3.5963   58.1015 C.ar    1  ZINC000179211660   -0.2200
      5 C5         -9.6458   -3.7438   58.5694 C.ar    1  ZINC000179211660   -0.0700
      6 C6         -9.0365   -2.7113   59.2575 C.ar    1  ZINC000179211660   -0.1700
      7 C7         -9.7177   -1.5285   59.4796 C.ar    1  ZINC000179211660   -0.0700
      8 C8        -11.0069   -1.3737   59.0087 C.ar    1  ZINC000179211660   -0.1500
      9 C9        -11.7485   -0.0843   59.2505 C.3     1  ZINC000179211660    0.1800
     10 N10       -12.4562   -0.1607   60.5310 N.am    1  ZINC000179211660   -0.6200
     11 C11       -13.8309   -0.6648   60.5791 C.3     1  ZINC000179211660    0.0700
     12 C12       -11.8426    0.2327   61.6646 C.2     1  ZINC000179211660    0.7000
     13 O13       -12.4294    0.1678   62.7276 O.2     1  ZINC000179211660   -0.5300
     14 N14       -10.5785    0.6980   61.6200 N.am    1  ZINC000179211660   -0.6800
     15 C15        -9.9405    1.1069   62.7984 C.ar    1  ZINC000179211660    0.1900
     16 C16        -8.9717    0.3015   63.3795 C.ar    1  ZINC000179211660   -0.1400
     17 C17        -8.3427    0.7079   64.5432 C.ar    1  ZINC000179211660    0.1500
     18 F18        -7.3992   -0.0758   65.1095 F       1  ZINC000179211660   -0.1100
     19 C19        -8.6793    1.9179   65.1274 C.ar    1  ZINC000179211660   -0.1300
     20 Br20       -7.8174    2.4706   66.7173 Br      1  ZINC000179211660   -0.0100
     21 C21        -9.6449    2.7230   64.5495 C.ar    1  ZINC000179211660   -0.0700
     22 C22       -10.2731    2.3234   63.3845 C.ar    1  ZINC000179211660    0.0600
     23 F23       -11.2158    3.1100   62.8207 F       1  ZINC000179211660   -0.1300
     24 H24       -14.4986   -3.1417   56.9044 H       1  ZINC000179211660    0.1000
     25 H25       -12.8917   -3.6733   56.3533 H       1  ZINC000179211660    0.0500
     26 H26       -13.5237   -4.2296   57.9215 H       1  ZINC000179211660    0.0500
     27 H27       -11.4133   -4.4035   57.5645 H       1  ZINC000179211660    0.1300
     28 H28        -9.1119   -4.6668   58.3975 H       1  ZINC000179211660    0.1200
     29 H29        -8.0269   -2.8286   59.6228 H       1  ZINC000179211660    0.1200
     30 H30        -9.2396   -0.7234   60.0179 H       1  ZINC000179211660    0.1300
     31 H31       -11.0395    0.7433   59.2760 H       1  ZINC000179211660    0.0900
     32 H32       -12.4673    0.0777   58.4473 H       1  ZINC000179211660    0.1000
     33 H33       -13.8171   -1.7442   60.7301 H       1  ZINC000179211660    0.0600
     34 H34       -14.3635   -0.1895   61.4028 H       1  ZINC000179211660    0.0600
     35 H35       -14.3350   -0.4358   59.6402 H       1  ZINC000179211660    0.0800
     36 H36       -10.1103    0.7497   60.7720 H       1  ZINC000179211660    0.4100
     37 H37        -8.7088   -0.6419   62.9243 H       1  ZINC000179211660    0.1800
     38 H38        -9.9056    3.6660   65.0069 H       1  ZINC000179211660    0.1600
@<TRIPOS>BOND
     1     1     2    1
     2     1    24    1
     3     1    25    1
     4     1    26    1
     5     2     3    1
     6     3     8   ar
     7     3     4   ar
     8     4     5   ar
     9     4    27    1
    10     5     6   ar
    11     5    28    1
    12     6     7   ar
    13     6    29    1
    14     7     8   ar
    15     7    30    1
    16     8     9    1
    17     9    10    1
    18     9    31    1
    19     9    32    1
    20    10    11    1
    21    10    12   am
    22    11    33    1
    23    11    34    1
    24    11    35    1
    25    12    13    2
    26    12    14   am
    27    14    15    1
    28    14    36    1
    29    15    22   ar
    30    15    16   ar
    31    16    17   ar
    32    16    37    1
    33    17    18    1
    34    17    19   ar
    35    19    20    1
    36    19    21   ar
    37    21    22   ar
    38    21    38    1
    39    22    23    1
@<TRIPOS>SUBSTRUCTURE
     1 ZINC000179211660        1 TEMP              0 ****  ****    0 ROOT


##########                                Name:    ZINC000032503012
##########                DOCK_Rotatable_Bonds:                   8
##########                         Heavy_Atoms:                  27
##########                    Molecular_Weight:             390.503
##########                DOCK_Rotatable_Bonds:                   8
##########                       Formal_Charge:           0.0099995
##########                     HBond_Acceptors:                   7
##########                        HBond_Donors:                   2
##########                         Heavy_Atoms:                  27
##########                          Grid_Score:          -28.441158
##########                     Grid_vdw_energy:          -25.693390
##########                      Grid_es_energy:           -2.747768
##########           Internal_energy_repulsive:           38.955288

@<TRIPOS>MOLECULE
ZINC000032503012
 53 54 1 0 0
SMALL
USER_CHARGES


@<TRIPOS>ATOM
      1 C1        -13.3422    0.4832   52.1482 C.3     1  ZINC000032503012   -0.1200
      2 C2        -13.6308    0.2473   53.6084 C.ar    1  ZINC000032503012   -0.0500
      3 C3        -14.2143    1.2450   54.3670 C.ar    1  ZINC000032503012   -0.1600
      4 C4        -14.4803    1.0318   55.7072 C.ar    1  ZINC000032503012   -0.0700
      5 C5        -14.1635   -0.1792   56.2912 C.ar    1  ZINC000032503012   -0.1500
      6 C6        -13.5778   -1.1820   55.5320 C.ar    1  ZINC000032503012    0.1300
      7 O7        -13.2655   -2.3746   56.1042 O.3     1  ZINC000032503012   -0.2800
      8 C8        -13.9626   -2.7216   57.3022 C.3     1  ZINC000032503012    0.0700
      9 H9        -14.9206   -2.2022   57.3287 H       1  ZINC000032503012    0.1100
     10 C10       -14.2008   -4.2326   57.3343 C.3     1  ZINC000032503012   -0.1800
     11 C11       -13.1389   -2.3175   58.4977 C.2     1  ZINC000032503012    0.5200
     12 O12       -13.6155   -2.3788   59.6113 O.2     1  ZINC000032503012   -0.4900
     13 N13       -11.8725   -1.8880   58.3295 N.am    1  ZINC000032503012   -0.6700
     14 C14       -11.1076   -1.5127   59.4394 C.ar    1  ZINC000032503012    0.1300
     15 C15        -9.9693   -2.2334   59.7756 C.ar    1  ZINC000032503012   -0.0600
     16 C16        -9.2163   -1.8605   60.8719 C.ar    1  ZINC000032503012   -0.1200
     17 C17        -9.5952   -0.7713   61.6346 C.ar    1  ZINC000032503012   -0.0300
     18 C18       -10.7287   -0.0516   61.3026 C.ar    1  ZINC000032503012   -0.6600
     19 S19       -11.2073    1.3357   62.2778 S.o2    1  ZINC000032503012    2.7000
     20 O20       -12.5407    1.0874   62.7016 O.2     1  ZINC000032503012   -0.9600
     21 O21       -10.1375    1.5798   63.1806 O.2     1  ZINC000032503012   -0.9500
     22 N22       -11.2742    2.6457   61.2669 N.am    1  ZINC000032503012   -1.1100
     23 C23       -10.0749    3.0742   60.5428 C.3     1  ZINC000032503012    0.1700
     24 C24        -9.5459    1.9124   59.6995 C.3     1  ZINC000032503012   -0.1900
     25 C25       -10.4240    4.2504   59.6288 C.3     1  ZINC000032503012   -0.1500
     26 C26        -9.0022    3.5074   61.5442 C.3     1  ZINC000032503012   -0.1800
     27 C27       -11.4821   -0.4153   60.2039 C.ar    1  ZINC000032503012   -0.0400
     28 C28       -13.3171   -0.9677   54.1866 C.ar    1  ZINC000032503012   -0.2100
     29 H29       -14.2058    0.1840   51.5543 H       1  ZINC000032503012    0.0700
     30 H30       -13.1376    1.5413   51.9846 H       1  ZINC000032503012    0.0700
     31 H31       -12.4746   -0.1051   51.8498 H       1  ZINC000032503012    0.0700
     32 H32       -14.4624    2.1927   53.9123 H       1  ZINC000032503012    0.1300
     33 H33       -14.9359    1.8128   56.2978 H       1  ZINC000032503012    0.1300
     34 H34       -14.3711   -0.3451   57.3379 H       1  ZINC000032503012    0.1300
     35 H35       -14.7967   -4.5249   56.4697 H       1  ZINC000032503012    0.0800
     36 H36       -13.2429   -4.7520   57.3078 H       1  ZINC000032503012    0.0800
     37 H37       -14.7326   -4.4973   58.2482 H       1  ZINC000032503012    0.0800
     38 H38       -11.4912   -1.8389   57.4388 H       1  ZINC000032503012    0.4100
     39 H39        -9.6732   -3.0848   59.1807 H       1  ZINC000032503012    0.1400
     40 H40        -8.3309   -2.4206   61.1340 H       1  ZINC000032503012    0.1400
     41 H41        -9.0050   -0.4820   62.4915 H       1  ZINC000032503012    0.1500
     42 H42       -12.1075    3.1292   61.1541 H       1  ZINC000032503012    0.4200
     43 H43       -10.3612    1.4879   59.1138 H       1  ZINC000032503012    0.0700
     44 H44        -8.7672    2.2754   59.0287 H       1  ZINC000032503012    0.0800
     45 H45        -9.1323    1.1462   60.3553 H       1  ZINC000032503012    0.0700
     46 H46       -10.8009    5.0781   60.2296 H       1  ZINC000032503012    0.0700
     47 H47        -9.5317    4.5693   59.0902 H       1  ZINC000032503012    0.0700
     48 H48       -11.1882    3.9418   58.9154 H       1  ZINC000032503012    0.0600
     49 H49        -8.6116    2.6304   62.0604 H       1  ZINC000032503012    0.0900
     50 H50        -8.1918    4.0082   61.0146 H       1  ZINC000032503012    0.0700
     51 H51        -9.4390    4.1921   62.2711 H       1  ZINC000032503012    0.0600
     52 H52       -12.3671    0.1470   59.9452 H       1  ZINC000032503012    0.1400
     53 H53       -12.8612   -1.7468   53.5935 H       1  ZINC000032503012    0.1300
@<TRIPOS>BOND
     1     1     2    1
     2     1    29    1
     3     1    30    1
     4     1    31    1
     5     2    28   ar
     6     2     3   ar
     7     3     4   ar
     8     3    32    1
     9     4     5   ar
    10     4    33    1
    11     5     6   ar
    12     5    34    1
    13     6     7    1
    14     6    28   ar
    15     7     8    1
    16     8     9    1
    17     8    10    1
    18     8    11    1
    19    10    35    1
    20    10    36    1
    21    10    37    1
    22    11    12    2
    23    11    13   am
    24    13    14    1
    25    13    38    1
    26    14    27   ar
    27    14    15   ar
    28    15    16   ar
    29    15    39    1
    30    16    17   ar
    31    16    40    1
    32    17    18   ar
    33    17    41    1
    34    18    19    1
    35    18    27   ar
    36    19    20    2
    37    19    21    2
    38    19    22   am
    39    22    23    1
    40    22    42    1
    41    23    24    1
    42    23    25    1
    43    23    26    1
    44    24    43    1
    45    24    44    1
    46    24    45    1
    47    25    46    1
    48    25    47    1
    49    25    48    1
    50    26    49    1
    51    26    50    1
    52    26    51    1
    53    27    52    1
    54    28    53    1
@<TRIPOS>SUBSTRUCTURE
     1 ZINC000032503012        1 TEMP              0 ****  ****    0 ROOT


##########                                Name:    ZINC000028372981
##########                DOCK_Rotatable_Bonds:                   7
##########                         Heavy_Atoms:                  28
##########                    Molecular_Weight:             380.443
##########                DOCK_Rotatable_Bonds:                   7
##########                       Formal_Charge:         1.78814e-07
##########                     HBond_Acceptors:                   6
##########                        HBond_Donors:                   1
##########                         Heavy_Atoms:                  28
##########                          Grid_Score:          -28.437250
##########                     Grid_vdw_energy:          -28.472345
##########                      Grid_es_energy:            0.035096
##########           Internal_energy_repulsive:          170.613083

@<TRIPOS>MOLECULE
ZINC000028372981
 52 54 1 0 0
SMALL
USER_CHARGES


@<TRIPOS>ATOM
      1 C1         -7.7062    0.3418   65.3524 C.3     1  ZINC000028372981   -0.1800
      2 C2         -8.3365   -0.1480   64.0742 C.2     1  ZINC000028372981    0.5200
      3 O3         -7.8227   -1.0540   63.4531 O.2     1  ZINC000028372981   -0.5100
      4 N4         -9.4712    0.4211   63.6212 N.am    1  ZINC000028372981   -0.5500
      5 C5        -10.1817    1.5177   64.2837 C.3     1  ZINC000028372981    0.1000
      6 C6        -11.3987    1.8084   63.3903 C.3     1  ZINC000028372981   -0.0900
      7 C7        -11.2779    0.8195   62.2522 C.ar    1  ZINC000028372981   -0.1500
      8 C8        -12.0762    0.6134   61.1495 C.ar    1  ZINC000028372981    0.0000
      9 C9        -11.7495   -0.3838   60.2260 C.ar    1  ZINC000028372981   -0.1600
     10 C10       -12.6037   -0.6123   59.0460 C.2     1  ZINC000028372981    0.5200
     11 O11       -13.1817    0.3208   58.5247 O.2     1  ZINC000028372981   -0.5000
     12 O12       -12.7433   -1.8556   58.5458 O.3     1  ZINC000028372981   -0.3200
     13 C13       -13.8465   -2.0769   57.6280 C.3     1  ZINC000028372981    0.0700
     14 H14       -14.7028   -1.4780   57.9381 H       1  ZINC000028372981    0.1200
     15 C15       -14.2296   -3.5582   57.6388 C.3     1  ZINC000028372981   -0.1700
     16 C16       -13.4303   -1.6757   56.2362 C.2     1  ZINC000028372981    0.5200
     17 O17       -12.8008   -2.4484   55.5451 O.2     1  ZINC000028372981   -0.4900
     18 N18       -13.7578   -0.4583   55.7596 N.am    1  ZINC000028372981   -0.6600
     19 C19       -13.3714   -0.0858   54.4674 C.ar    1  ZINC000028372981    0.1500
     20 C20       -12.6496   -0.9689   53.6752 C.ar    1  ZINC000028372981   -0.1300
     21 C21       -12.2701   -0.5983   52.3998 C.ar    1  ZINC000028372981   -0.1000
     22 C22       -12.6087    0.6502   51.9116 C.ar    1  ZINC000028372981   -0.1300
     23 C23       -13.3279    1.5318   52.6978 C.ar    1  ZINC000028372981   -0.0700
     24 C24       -13.6952    2.8913   52.1614 C.3     1  ZINC000028372981   -0.1200
     25 C25       -13.7095    1.1678   53.9740 C.ar    1  ZINC000028372981   -0.1200
     26 C26       -14.4924    2.1293   54.8304 C.3     1  ZINC000028372981   -0.1200
     27 C27       -10.6036   -1.1591   60.4265 C.ar    1  ZINC000028372981   -0.0200
     28 C28        -9.8099   -0.9430   61.5268 C.ar    1  ZINC000028372981   -0.1800
     29 C29       -10.1384    0.0512   62.4549 C.ar    1  ZINC000028372981    0.1900
     30 H30        -8.4098    0.2174   66.1755 H       1  ZINC000028372981    0.1000
     31 H31        -6.8033   -0.2339   65.5561 H       1  ZINC000028372981    0.1000
     32 H32        -7.4495    1.3962   65.2501 H       1  ZINC000028372981    0.1000
     33 H33       -10.5073    1.2111   65.2778 H       1  ZINC000028372981    0.0900
     34 H34        -9.5419    2.3977   64.3493 H       1  ZINC000028372981    0.0900
     35 H35       -12.3240    1.6424   63.9420 H       1  ZINC000028372981    0.1000
     36 H36       -11.3589    2.8307   63.0143 H       1  ZINC000028372981    0.1000
     37 H37       -12.9574    1.2196   61.0001 H       1  ZINC000028372981    0.1400
     38 H38       -13.3733   -4.1572   57.3287 H       1  ZINC000028372981    0.0800
     39 H39       -14.5305   -3.8484   58.6454 H       1  ZINC000028372981    0.0800
     40 H40       -15.0577   -3.7243   56.9498 H       1  ZINC000028372981    0.0800
     41 H41       -14.2612    0.1596   56.3124 H       1  ZINC000028372981    0.4100
     42 H42       -12.3891   -1.9460   54.0544 H       1  ZINC000028372981    0.1400
     43 H43       -11.7088   -1.2846   51.7833 H       1  ZINC000028372981    0.1300
     44 H44       -12.3111    0.9374   50.9138 H       1  ZINC000028372981    0.1200
     45 H45       -14.6613    2.8352   51.6597 H       1  ZINC000028372981    0.0700
     46 H46       -13.7541    3.6030   52.9848 H       1  ZINC000028372981    0.0700
     47 H47       -12.9358    3.2192   51.4515 H       1  ZINC000028372981    0.0700
     48 H48       -15.5590    1.9778   54.6650 H       1  ZINC000028372981    0.0700
     49 H49       -14.2589    1.9536   55.8805 H       1  ZINC000028372981    0.0600
     50 H50       -14.2254    3.1523   54.5652 H       1  ZINC000028372981    0.0800
     51 H51       -10.3419   -1.9286   59.7153 H       1  ZINC000028372981    0.1500
     52 H52        -8.9260   -1.5452   61.6768 H       1  ZINC000028372981    0.1500
@<TRIPOS>BOND
     1     1     2    1
     2     1    30    1
     3     1    31    1
     4     1    32    1
     5     2     3    2
     6     2     4   am
     7     4    29    1
     8     4     5    1
     9     5     6    1
    10     5    33    1
    11     5    34    1
    12     6     7    1
    13     6    35    1
    14     6    36    1
    15     7    29   ar
    16     7     8   ar
    17     8     9   ar
    18     8    37    1
    19     9    10    1
    20     9    27   ar
    21    10    11    2
    22    10    12    1
    23    12    13    1
    24    13    14    1
    25    13    15    1
    26    13    16    1
    27    15    38    1
    28    15    39    1
    29    15    40    1
    30    16    17    2
    31    16    18   am
    32    18    19    1
    33    18    41    1
    34    19    25   ar
    35    19    20   ar
    36    20    21   ar
    37    20    42    1
    38    21    22   ar
    39    21    43    1
    40    22    23   ar
    41    22    44    1
    42    23    24    1
    43    23    25   ar
    44    24    45    1
    45    24    46    1
    46    24    47    1
    47    25    26    1
    48    26    48    1
    49    26    49    1
    50    26    50    1
    51    27    28   ar
    52    27    51    1
    53    28    29   ar
    54    28    52    1
@<TRIPOS>SUBSTRUCTURE
     1 ZINC000028372981        1 TEMP              0 ****  ****    0 ROOT


##########                                Name:    ZINC001708427409
##########                DOCK_Rotatable_Bonds:                   6
##########                         Heavy_Atoms:                  24
##########                    Molecular_Weight:             334.505
##########                DOCK_Rotatable_Bonds:                   6
##########                       Formal_Charge:          -0.0200006
##########                     HBond_Acceptors:                   5
##########                        HBond_Donors:                   1
##########                         Heavy_Atoms:                  24
##########                          Grid_Score:          -28.423014
##########                     Grid_vdw_energy:          -25.463287
##########                      Grid_es_energy:           -2.959726
##########           Internal_energy_repulsive:           23.111351

@<TRIPOS>MOLECULE
ZINC001708427409
 58 60 1 0 0
SMALL
USER_CHARGES


@<TRIPOS>ATOM
      1 C1         -9.1491    0.2137   63.7681 C.3     1  ZINC001708427409   -0.1500
      2 C2         -9.9643    1.3829   64.3239 C.3     1  ZINC001708427409   -0.1200
      3 C3        -10.6703    2.1045   63.1742 C.3     1  ZINC001708427409    0.0000
      4 H4         -9.9266    2.5534   62.5157 H       1  ZINC001708427409    0.0800
      5 C5        -11.5776    3.1990   63.7397 C.3     1  ZINC001708427409   -0.1400
      6 C6        -11.5001    1.1168   62.3952 C.2     1  ZINC001708427409    0.1800
      7 N7        -12.5228    0.4448   62.8429 N.2     1  ZINC001708427409   -0.2800
      8 N8        -12.9968   -0.3068   61.9142 N.2     1  ZINC001708427409   -0.3200
      9 C9        -12.2963   -0.1534   60.8154 C.2     1  ZINC001708427409    0.3600
     10 N10       -12.5084   -0.7970   59.6065 N.3     1  ZINC001708427409   -0.4200
     11 C11       -13.9585   -0.8339   59.2688 C.3     1  ZINC001708427409    0.0400
     12 C12       -14.1018   -2.0076   58.2753 C.3     1  ZINC001708427409   -0.0900
     13 H13       -14.1022   -1.6381   57.2500 H       1  ZINC001708427409    0.0900
     14 C14       -15.3862   -2.7895   58.5581 C.3     1  ZINC001708427409   -0.1500
     15 C15       -12.8576   -2.9012   58.5262 C.3     1  ZINC001708427409   -0.0800
     16 H16       -13.1503   -3.9201   58.7792 H       1  ZINC001708427409    0.0900
     17 C17       -12.0187   -2.8733   57.2482 C.3     1  ZINC001708427409   -0.1100
     18 C18       -10.6375   -3.4669   57.5237 C.3     1  ZINC001708427409   -0.1200
     19 C19        -9.9062   -2.5552   58.5066 C.3     1  ZINC001708427409   -0.1100
     20 C20       -10.6684   -2.4547   59.8122 C.3     1  ZINC001708427409   -0.1000
     21 C21       -12.1468   -2.2281   59.6974 C.3     1  ZINC001708427409    0.1000
     22 H22       -12.6009   -2.6043   60.6141 H       1  ZINC001708427409    0.0600
     23 N23       -11.3232    0.7640   61.0861 N.pl3   1  ZINC001708427409   -0.4700
     24 C24       -10.2957    1.2606   60.1674 C.3     1  ZINC001708427409    0.0800
     25 C25       -10.9260    2.2471   59.1823 C.3     1  ZINC001708427409    0.1200
     26 C26       -11.6295    3.3628   59.9579 C.3     1  ZINC001708427409   -0.1800
     27 C27        -9.8345    2.8515   58.2969 C.3     1  ZINC001708427409   -0.1500
     28 O28       -11.8773    1.5620   58.3651 O.3     1  ZINC001708427409   -0.5400
     29 H29        -8.4063    0.5904   63.0649 H       1  ZINC001708427409    0.0600
     30 H30        -8.6461   -0.3004   64.5871 H       1  ZINC001708427409    0.0600
     31 H31        -9.8139   -0.4820   63.2562 H       1  ZINC001708427409    0.0500
     32 H32       -10.7071    1.0062   65.0271 H       1  ZINC001708427409    0.0700
     33 H33        -9.2995    2.0786   64.8357 H       1  ZINC001708427409    0.0800
     34 H34       -10.9775    3.9135   64.3030 H       1  ZINC001708427409    0.0700
     35 H35       -12.0806    3.7131   62.9206 H       1  ZINC001708427409    0.0500
     36 H36       -12.3214    2.7502   64.3981 H       1  ZINC001708427409    0.0700
     37 H37       -14.5522   -1.0196   60.1639 H       1  ZINC001708427409    0.0600
     38 H38       -14.2624    0.1011   58.7980 H       1  ZINC001708427409    0.0800
     39 H39       -16.2470   -2.1338   58.4272 H       1  ZINC001708427409    0.0600
     40 H40       -15.4603   -3.6288   57.8666 H       1  ZINC001708427409    0.0600
     41 H41       -15.3663   -3.1629   59.5819 H       1  ZINC001708427409    0.0600
     42 H42       -12.5168   -3.4581   56.4748 H       1  ZINC001708427409    0.0600
     43 H43       -11.9094   -1.8434   56.9086 H       1  ZINC001708427409    0.0700
     44 H44       -10.7459   -4.4609   57.9574 H       1  ZINC001708427409    0.0600
     45 H45       -10.0735   -3.5296   56.5930 H       1  ZINC001708427409    0.0600
     46 H46        -8.9130   -2.9599   58.7008 H       1  ZINC001708427409    0.0600
     47 H47        -9.8091   -1.5611   58.0701 H       1  ZINC001708427409    0.0600
     48 H48       -10.5178   -3.3805   60.3674 H       1  ZINC001708427409    0.0600
     49 H49       -10.2404   -1.6393   60.3952 H       1  ZINC001708427409    0.0700
     50 H50        -9.5132    1.7640   60.7352 H       1  ZINC001708427409    0.0900
     51 H51        -9.8645    0.4238   59.6178 H       1  ZINC001708427409    0.1000
     52 H52       -10.9039    3.8853   60.5812 H       1  ZINC001708427409    0.0700
     53 H53       -12.0787    4.0656   59.2560 H       1  ZINC001708427409    0.0700
     54 H54       -12.4072    2.9322   60.5886 H       1  ZINC001708427409    0.0600
     55 H55        -9.2790    2.0514   57.8076 H       1  ZINC001708427409    0.0700
     56 H56       -10.2917    3.4909   57.5418 H       1  ZINC001708427409    0.0700
     57 H57        -9.1548    3.4429   58.9105 H       1  ZINC001708427409    0.0700
     58 H58       -12.3178    2.1276   57.7160 H       1  ZINC001708427409    0.3800
@<TRIPOS>BOND
     1     1     2    1
     2     1    29    1
     3     1    30    1
     4     1    31    1
     5     2     3    1
     6     2    32    1
     7     2    33    1
     8     3     4    1
     9     3     5    1
    10     3     6    1
    11     5    34    1
    12     5    35    1
    13     5    36    1
    14     6    23    1
    15     6     7    2
    16     7     8    1
    17     8     9    2
    18     9    10    1
    19     9    23    1
    20    10    21    1
    21    10    11    1
    22    11    12    1
    23    11    37    1
    24    11    38    1
    25    12    13    1
    26    12    14    1
    27    12    15    1
    28    14    39    1
    29    14    40    1
    30    14    41    1
    31    15    16    1
    32    15    21    1
    33    15    17    1
    34    17    18    1
    35    17    42    1
    36    17    43    1
    37    18    19    1
    38    18    44    1
    39    18    45    1
    40    19    20    1
    41    19    46    1
    42    19    47    1
    43    20    21    1
    44    20    48    1
    45    20    49    1
    46    21    22    1
    47    23    24    1
    48    24    25    1
    49    24    50    1
    50    24    51    1
    51    25    26    1
    52    25    27    1
    53    25    28    1
    54    26    52    1
    55    26    53    1
    56    26    54    1
    57    27    55    1
    58    27    56    1
    59    27    57    1
    60    28    58    1
@<TRIPOS>SUBSTRUCTURE
     1 ZINC001708427409        1 TEMP              0 ****  ****    0 ROOT


##########                                Name:    ZINC000790205345
##########                DOCK_Rotatable_Bonds:                   7
##########                         Heavy_Atoms:                  28
##########                    Molecular_Weight:             382.459
##########                DOCK_Rotatable_Bonds:                   7
##########                       Formal_Charge:          -0.0299997
##########                     HBond_Acceptors:                   6
##########                        HBond_Donors:                   0
##########                         Heavy_Atoms:                  28
##########                          Grid_Score:          -28.407679
##########                     Grid_vdw_energy:          -27.158449
##########                      Grid_es_energy:           -1.249230
##########           Internal_energy_repulsive:           50.037403

@<TRIPOS>MOLECULE
ZINC000790205345
 54 56 1 0 0
SMALL
USER_CHARGES


@<TRIPOS>ATOM
      1 C1         -9.5119    2.1465   63.3391 C.3     1  ZINC000790205345   -0.1100
      2 C2         -9.6658    1.1059   62.2600 C.ar    1  ZINC000790205345   -0.1300
      3 C3        -10.3854    1.3988   61.1166 C.ar    1  ZINC000790205345   -0.0800
      4 C4        -10.5276    0.4467   60.1255 C.ar    1  ZINC000790205345   -0.2100
      5 C5         -9.9476   -0.8040   60.2786 C.ar    1  ZINC000790205345    0.1300
      6 O6        -10.0856   -1.7422   59.3051 O.3     1  ZINC000790205345   -0.2900
      7 C7        -10.9966   -2.8131   59.5606 C.3     1  ZINC000790205345    0.0400
      8 C8        -12.4041   -2.3525   59.2816 C.2     1  ZINC000790205345    0.5200
      9 O9        -13.0484   -1.8088   60.1535 O.2     1  ZINC000790205345   -0.5100
     10 N10       -12.9470   -2.5448   58.0631 N.am    1  ZINC000790205345   -0.6100
     11 C11       -12.1694   -3.2033   57.0104 C.3     1  ZINC000790205345    0.0700
     12 C12       -14.3146   -2.0956   57.7913 C.3     1  ZINC000790205345    0.1800
     13 H13       -14.6700   -1.4886   58.6241 H       1  ZINC000790205345    0.1200
     14 C14       -15.2267   -3.3121   57.6211 C.3     1  ZINC000790205345   -0.1600
     15 C15       -14.3318   -1.2742   56.5279 C.ar    1  ZINC000790205345   -0.0700
     16 C16       -14.8540   -1.8079   55.3643 C.ar    1  ZINC000790205345   -0.1300
     17 C17       -14.8711   -1.0574   54.2027 C.ar    1  ZINC000790205345   -0.0900
     18 C18       -14.3669    0.2281   54.2020 C.ar    1  ZINC000790205345   -0.1500
     19 C19       -13.8421    0.7673   55.3693 C.ar    1  ZINC000790205345    0.1800
     20 N20       -13.3305    2.0700   55.3720 N.am    1  ZINC000790205345   -0.5700
     21 C21       -13.2920    2.9762   54.2140 C.3     1  ZINC000790205345    0.0600
     22 C22       -12.6387    4.2558   54.7709 C.3     1  ZINC000790205345    0.0400
     23 O23       -12.3802    3.9398   56.1697 O.3     1  ZINC000790205345   -0.3200
     24 C24       -12.8013    2.6973   56.4314 C.2     1  ZINC000790205345    0.6400
     25 O25       -12.7052    2.1816   57.5274 O.2     1  ZINC000790205345   -0.5000
     26 C26       -13.8310    0.0131   56.5351 C.ar    1  ZINC000790205345   -0.1400
     27 C27        -9.2257   -1.0956   61.4272 C.ar    1  ZINC000790205345   -0.1500
     28 C28        -9.0821   -0.1385   62.4127 C.ar    1  ZINC000790205345   -0.0500
     29 C29        -8.2978   -0.4541   63.6602 C.3     1  ZINC000790205345   -0.1200
     30 H30        -8.6202    2.7425   63.1446 H       1  ZINC000790205345    0.0700
     31 H31       -10.3880    2.7950   63.3461 H       1  ZINC000790205345    0.0600
     32 H32        -9.4162    1.6546   64.3071 H       1  ZINC000790205345    0.0700
     33 H33       -10.8372    2.3726   60.9980 H       1  ZINC000790205345    0.1300
     34 H34       -11.0903    0.6758   59.2326 H       1  ZINC000790205345    0.1300
     35 H35       -10.7557   -3.6571   58.9143 H       1  ZINC000790205345    0.1000
     36 H36       -10.9144   -3.1189   60.6036 H       1  ZINC000790205345    0.0900
     37 H37       -12.2567   -4.2845   57.1166 H       1  ZINC000790205345    0.0600
     38 H38       -12.5508   -2.9020   56.0348 H       1  ZINC000790205345    0.0800
     39 H39       -11.1224   -2.9130   57.0966 H       1  ZINC000790205345    0.0700
     40 H40       -14.8714   -3.9190   56.7883 H       1  ZINC000790205345    0.0600
     41 H41       -15.2144   -3.9062   58.5349 H       1  ZINC000790205345    0.0700
     42 H42       -16.2444   -2.9778   57.4189 H       1  ZINC000790205345    0.0800
     43 H43       -15.2491   -2.8130   55.3623 H       1  ZINC000790205345    0.1300
     44 H44       -15.2791   -1.4773   53.2952 H       1  ZINC000790205345    0.1300
     45 H45       -14.3802    0.8135   53.2945 H       1  ZINC000790205345    0.1300
     46 H46       -12.6832    2.5518   53.4158 H       1  ZINC000790205345    0.1000
     47 H47       -14.3007    3.1852   53.8577 H       1  ZINC000790205345    0.1000
     48 H48       -11.7057    4.4670   54.2483 H       1  ZINC000790205345    0.1100
     49 H49       -13.3228    5.1004   54.6902 H       1  ZINC000790205345    0.1100
     50 H50       -13.4238    0.4297   57.4446 H       1  ZINC000790205345    0.1600
     51 H51        -8.7734   -2.0686   61.5489 H       1  ZINC000790205345    0.1300
     52 H52        -7.2509   -0.1919   63.5074 H       1  ZINC000790205345    0.0700
     53 H53        -8.6979    0.1200   64.4959 H       1  ZINC000790205345    0.0700
     54 H54        -8.3774   -1.5189   63.8796 H       1  ZINC000790205345    0.0700
@<TRIPOS>BOND
     1     1     2    1
     2     1    30    1
     3     1    31    1
     4     1    32    1
     5     2    28   ar
     6     2     3   ar
     7     3     4   ar
     8     3    33    1
     9     4     5   ar
    10     4    34    1
    11     5     6    1
    12     5    27   ar
    13     6     7    1
    14     7     8    1
    15     7    35    1
    16     7    36    1
    17     8     9    2
    18     8    10   am
    19    10    11    1
    20    10    12    1
    21    11    37    1
    22    11    38    1
    23    11    39    1
    24    12    13    1
    25    12    14    1
    26    12    15    1
    27    14    40    1
    28    14    41    1
    29    14    42    1
    30    15    26   ar
    31    15    16   ar
    32    16    17   ar
    33    16    43    1
    34    17    18   ar
    35    17    44    1
    36    18    19   ar
    37    18    45    1
    38    19    20    1
    39    19    26   ar
    40    20    24   am
    41    20    21    1
    42    21    22    1
    43    21    46    1
    44    21    47    1
    45    22    23    1
    46    22    48    1
    47    22    49    1
    48    23    24    1
    49    24    25    2
    50    26    50    1
    51    27    28   ar
    52    27    51    1
    53    28    29    1
    54    29    52    1
    55    29    53    1
    56    29    54    1
@<TRIPOS>SUBSTRUCTURE
     1 ZINC000790205345        1 TEMP              0 ****  ****    0 ROOT


##########                                Name:    ZINC000410354665
##########                DOCK_Rotatable_Bonds:                   7
##########                         Heavy_Atoms:                  29
##########                    Molecular_Weight:             417.889
##########                DOCK_Rotatable_Bonds:                   7
##########                       Formal_Charge:        -3.72529e-08
##########                     HBond_Acceptors:                   7
##########                        HBond_Donors:                   1
##########                         Heavy_Atoms:                  29
##########                          Grid_Score:          -28.406097
##########                     Grid_vdw_energy:          -29.219181
##########                      Grid_es_energy:            0.813083
##########           Internal_energy_repulsive:          169.287109

@<TRIPOS>MOLECULE
ZINC000410354665
 53 56 1 0 0
SMALL
USER_CHARGES


@<TRIPOS>ATOM
      1 C1         -7.8963    4.7293   62.6647 C.3     1  ZINC000410354665    0.0200
      2 O2         -8.6937    3.5559   62.4949 O.3     1  ZINC000410354665   -0.3000
      3 C3         -9.0995    3.2628   61.2303 C.ar    1  ZINC000410354665    0.0900
      4 C4         -8.7344    4.0825   60.1806 C.ar    1  ZINC000410354665   -0.1100
      5 C5         -9.1527    3.7780   58.8822 C.ar    1  ZINC000410354665   -0.1400
      6 C6         -8.7648    4.6505   57.7565 C.2     1  ZINC000410354665    0.5700
      7 O7         -7.9424    5.5301   57.9244 O.2     1  ZINC000410354665   -0.5300
      8 N8         -9.3224    4.4721   56.5425 N.am    1  ZINC000410354665   -0.7200
      9 C9         -8.9361    5.3369   55.4249 C.3     1  ZINC000410354665    0.1700
     10 C10        -7.8324    4.6782   54.6381 C.ar    1  ZINC000410354665   -0.1000
     11 C11        -6.5117    4.9316   54.9574 C.ar    1  ZINC000410354665   -0.0900
     12 C12        -5.4959    4.3306   54.2360 C.ar    1  ZINC000410354665   -0.0300
     13 Cl13       -3.8382    4.6516   54.6394 Cl      1  ZINC000410354665   -0.0400
     14 C14        -5.8011    3.4707   53.1905 C.ar    1  ZINC000410354665    0.0700
     15 O15        -4.7911    2.8923   52.4844 O.3     1  ZINC000410354665   -0.2900
     16 C16        -5.1331    1.7524   51.6884 C.3     1  ZINC000410354665    0.0200
     17 C17        -6.4153    2.0767   50.9101 C.3     1  ZINC000410354665    0.0200
     18 O18        -7.4509    2.3696   51.8545 O.3     1  ZINC000410354665   -0.3000
     19 C19        -7.1292    3.2135   52.8727 C.ar    1  ZINC000410354665    0.0600
     20 C20        -8.1426    3.8171   53.6024 C.ar    1  ZINC000410354665   -0.0900
     21 C21        -9.9382    2.6463   58.6521 C.ar    1  ZINC000410354665   -0.0800
     22 C22       -10.2996    1.8327   59.7043 C.ar    1  ZINC000410354665   -0.1900
     23 C23        -9.8794    2.1315   60.9929 C.ar    1  ZINC000410354665    0.1400
     24 O24       -10.2381    1.3268   62.0262 O.3     1  ZINC000410354665   -0.2900
     25 C25       -11.0375    0.1848   61.7119 C.3     1  ZINC000410354665    0.0700
     26 C26       -12.3136    0.6111   60.9445 C.3     1  ZINC000410354665   -0.1500
     27 C27       -12.7044   -0.6819   60.1863 C.3     1  ZINC000410354665   -0.1200
     28 C28       -11.3540   -1.2909   59.7558 C.3     1  ZINC000410354665   -0.1200
     29 C29       -10.2942   -0.7398   60.7258 C.3     1  ZINC000410354665   -0.1200
     30 H30        -6.9824    4.6356   62.0783 H       1  ZINC000410354665    0.0600
     31 H31        -8.4565    5.6014   62.3276 H       1  ZINC000410354665    0.0600
     32 H32        -7.6416    4.8462   63.7182 H       1  ZINC000410354665    0.1000
     33 H33        -8.1272    4.9569   60.3626 H       1  ZINC000410354665    0.1500
     34 H34        -9.9794    3.7712   56.4088 H       1  ZINC000410354665    0.4000
     35 H35        -9.7972    5.4994   54.7766 H       1  ZINC000410354665    0.0800
     36 H36        -8.5859    6.2944   55.8105 H       1  ZINC000410354665    0.0900
     37 H37        -6.2725    5.6004   55.7710 H       1  ZINC000410354665    0.1500
     38 H38        -4.3243    1.5356   50.9905 H       1  ZINC000410354665    0.1300
     39 H39        -5.3029    0.8909   52.3341 H       1  ZINC000410354665    0.0800
     40 H40        -6.2473    2.9419   50.2688 H       1  ZINC000410354665    0.0800
     41 H41        -6.7035    1.2188   50.3028 H       1  ZINC000410354665    0.1300
     42 H42        -9.1755    3.6170   53.3584 H       1  ZINC000410354665    0.1400
     43 H43       -10.2626    2.4091   57.6497 H       1  ZINC000410354665    0.1300
     44 H44       -10.9072    0.9580   59.5249 H       1  ZINC000410354665    0.1400
     45 H45       -11.2995   -0.3579   62.6201 H       1  ZINC000410354665    0.0800
     46 H46       -13.1013    0.9053   61.6381 H       1  ZINC000410354665    0.0700
     47 H47       -12.0925    1.4172   60.2450 H       1  ZINC000410354665    0.0800
     48 H48       -13.2378   -1.3652   60.8472 H       1  ZINC000410354665    0.0700
     49 H49       -13.3111   -0.4432   59.3128 H       1  ZINC000410354665    0.0700
     50 H50       -11.3953   -2.3779   59.8261 H       1  ZINC000410354665    0.0700
     51 H51       -11.1177   -0.9909   58.7349 H       1  ZINC000410354665    0.0700
     52 H52        -9.5435   -0.1725   60.1756 H       1  ZINC000410354665    0.0800
     53 H53        -9.8210   -1.5594   61.2667 H       1  ZINC000410354665    0.0700
@<TRIPOS>BOND
     1     1     2    1
     2     1    30    1
     3     1    31    1
     4     1    32    1
     5     2     3    1
     6     3    23   ar
     7     3     4   ar
     8     4     5   ar
     9     4    33    1
    10     5     6    1
    11     5    21   ar
    12     6     7    2
    13     6     8   am
    14     8     9    1
    15     8    34    1
    16     9    10    1
    17     9    35    1
    18     9    36    1
    19    10    20   ar
    20    10    11   ar
    21    11    12   ar
    22    11    37    1
    23    12    13    1
    24    12    14   ar
    25    14    19   ar
    26    14    15    1
    27    15    16    1
    28    16    17    1
    29    16    38    1
    30    16    39    1
    31    17    18    1
    32    17    40    1
    33    17    41    1
    34    18    19    1
    35    19    20   ar
    36    20    42    1
    37    21    22   ar
    38    21    43    1
    39    22    23   ar
    40    22    44    1
    41    23    24    1
    42    24    25    1
    43    25    29    1
    44    25    26    1
    45    25    45    1
    46    26    27    1
    47    26    46    1
    48    26    47    1
    49    27    28    1
    50    27    48    1
    51    27    49    1
    52    28    29    1
    53    28    50    1
    54    28    51    1
    55    29    52    1
    56    29    53    1
@<TRIPOS>SUBSTRUCTURE
     1 ZINC000410354665        1 TEMP              0 ****  ****    0 ROOT


##########                                Name:    ZINC000156038173
##########                DOCK_Rotatable_Bonds:                  10
##########                         Heavy_Atoms:                  27
##########                    Molecular_Weight:             396.357
##########                DOCK_Rotatable_Bonds:                  10
##########                       Formal_Charge:         -0.00999981
##########                     HBond_Acceptors:                  10
##########                        HBond_Donors:                   1
##########                         Heavy_Atoms:                  27
##########                          Grid_Score:          -28.368389
##########                     Grid_vdw_energy:          -25.314753
##########                      Grid_es_energy:           -3.053637
##########           Internal_energy_repulsive:           45.278908

@<TRIPOS>MOLECULE
ZINC000156038173
 48 48 1 0 0
SMALL
USER_CHARGES


@<TRIPOS>ATOM
      1 C1         -7.9044   -0.5483   63.8291 C.3     1  ZINC000156038173    0.0700
      2 N2         -9.1507    0.1991   64.0136 N.am    1  ZINC000156038173   -0.6300
      3 C3         -9.4631    0.7925   65.3162 C.3     1  ZINC000156038173    0.1500
      4 C4         -8.6680    2.0880   65.4903 C.3     1  ZINC000156038173   -0.1400
      5 C5         -9.3374    3.1957   64.7183 C.2     1  ZINC000156038173    0.4700
      6 O6         -8.9473    3.4817   63.6111 O.2     1  ZINC000156038173   -0.5000
      7 O7        -10.3669    3.8647   65.2607 O.3     1  ZINC000156038173   -0.3500
      8 C8        -10.9496    4.9330   64.4685 C.3     1  ZINC000156038173    0.1200
      9 C9        -11.4790    4.3610   63.1519 C.3     1  ZINC000156038173   -0.1800
     10 C10       -12.1011    5.5742   65.2455 C.3     1  ZINC000156038173   -0.1400
     11 C11        -9.8828    5.9892   64.1734 C.3     1  ZINC000156038173   -0.1800
     12 C12       -10.0100    0.3409   62.9850 C.2     1  ZINC000156038173    0.7100
     13 O13       -11.0437    0.9625   63.1377 O.2     1  ZINC000156038173   -0.5700
     14 N14        -9.7234   -0.2062   61.7872 N.am    1  ZINC000156038173   -0.7400
     15 C15       -10.6565   -0.0507   60.6686 C.3     1  ZINC000156038173    0.1700
     16 H16       -11.6776   -0.0197   61.0489 H       1  ZINC000156038173    0.1500
     17 C17       -10.5075   -1.2156   59.7242 C.ar    1  ZINC000156038173   -0.1300
     18 C18        -9.2584   -1.7579   59.4877 C.ar    1  ZINC000156038173   -0.0700
     19 C19        -9.1200   -2.8267   58.6215 C.ar    1  ZINC000156038173   -0.1000
     20 C20       -10.2303   -3.3549   57.9904 C.ar    1  ZINC000156038173   -0.1100
     21 C21       -11.4825   -2.8140   58.2251 C.ar    1  ZINC000156038173    0.0700
     22 F22       -12.5684   -3.3298   57.6086 F       1  ZINC000156038173   -0.1200
     23 C23       -11.6221   -1.7460   59.0982 C.ar    1  ZINC000156038173    0.1000
     24 F24       -12.8434   -1.2164   59.3288 F       1  ZINC000156038173   -0.1200
     25 C25       -10.3495    1.2509   59.9254 C.3     1  ZINC000156038173    0.4500
     26 F26       -11.0515    1.2738   58.7155 F       1  ZINC000156038173   -0.1700
     27 F27       -10.7398    2.3402   60.7117 F       1  ZINC000156038173   -0.1600
     28 F28        -8.9763    1.3289   59.6693 F       1  ZINC000156038173   -0.1700
     29 H29        -8.0729   -1.5994   64.0631 H       1  ZINC000156038173    0.0600
     30 H30        -7.5743   -0.4548   62.7945 H       1  ZINC000156038173    0.0700
     31 H31        -7.1383   -0.1468   64.4925 H       1  ZINC000156038173    0.0800
     32 H32       -10.5297    1.0108   65.3695 H       1  ZINC000156038173    0.1000
     33 H33        -9.1954    0.0926   66.1078 H       1  ZINC000156038173    0.0900
     34 H34        -8.6311    2.3525   66.5470 H       1  ZINC000156038173    0.1100
     35 H35        -7.6543    1.9453   65.1159 H       1  ZINC000156038173    0.1100
     36 H36       -12.2390    3.6084   63.3621 H       1  ZINC000156038173    0.0600
     37 H37       -11.9164    5.1629   62.5572 H       1  ZINC000156038173    0.0700
     38 H38       -10.6586    3.9041   62.5984 H       1  ZINC000156038173    0.0800
     39 H39       -11.7240    5.9817   66.1835 H       1  ZINC000156038173    0.0700
     40 H40       -12.5386    6.3761   64.6508 H       1  ZINC000156038173    0.0800
     41 H41       -12.8611    4.8217   65.4558 H       1  ZINC000156038173    0.0700
     42 H42        -9.0625    5.5324   63.6199 H       1  ZINC000156038173    0.0800
     43 H43       -10.3203    6.7912   63.5787 H       1  ZINC000156038173    0.0700
     44 H44        -9.5057    6.3967   65.1114 H       1  ZINC000156038173    0.0600
     45 H45        -8.8993   -0.7032   61.6657 H       1  ZINC000156038173    0.4100
     46 H46        -8.3896   -1.3463   59.9797 H       1  ZINC000156038173    0.1400
     47 H47        -8.1431   -3.2489   58.4377 H       1  ZINC000156038173    0.1500
     48 H48       -10.1207   -4.1895   57.3137 H       1  ZINC000156038173    0.1500
@<TRIPOS>BOND
     1     1     2    1
     2     1    29    1
     3     1    30    1
     4     1    31    1
     5     2     3    1
     6     2    12   am
     7     3     4    1
     8     3    32    1
     9     3    33    1
    10     4     5    1
    11     4    34    1
    12     4    35    1
    13     5     6    2
    14     5     7    1
    15     7     8    1
    16     8     9    1
    17     8    10    1
    18     8    11    1
    19     9    36    1
    20     9    37    1
    21     9    38    1
    22    10    39    1
    23    10    40    1
    24    10    41    1
    25    11    42    1
    26    11    43    1
    27    11    44    1
    28    12    13    2
    29    12    14   am
    30    14    15    1
    31    14    45    1
    32    15    16    1
    33    15    17    1
    34    15    25    1
    35    17    23   ar
    36    17    18   ar
    37    18    19   ar
    38    18    46    1
    39    19    20   ar
    40    19    47    1
    41    20    21   ar
    42    20    48    1
    43    21    22    1
    44    21    23   ar
    45    23    24    1
    46    25    26    1
    47    25    27    1
    48    25    28    1
@<TRIPOS>SUBSTRUCTURE
     1 ZINC000156038173        1 TEMP              0 ****  ****    0 ROOT


##########                                Name:    ZINC000740843182
##########                DOCK_Rotatable_Bonds:                  10
##########                         Heavy_Atoms:                  24
##########                    Molecular_Weight:              419.34
##########                DOCK_Rotatable_Bonds:                  10
##########                       Formal_Charge:          0.00999957
##########                     HBond_Acceptors:                   7
##########                        HBond_Donors:                   3
##########                         Heavy_Atoms:                  24
##########                          Grid_Score:          -28.356247
##########                     Grid_vdw_energy:          -27.041122
##########                      Grid_es_energy:           -1.315124
##########           Internal_energy_repulsive:           29.421623

@<TRIPOS>MOLECULE
ZINC000740843182
 47 48 1 0 0
SMALL
USER_CHARGES


@<TRIPOS>ATOM
      1 C1        -14.5218   -4.0318   58.4662 C.3     1  ZINC000740843182   -0.1500
      2 C2        -15.0466   -2.7751   57.7689 C.3     1  ZINC000740843182   -0.1000
      3 H3        -16.0747   -2.9408   57.4469 H       1  ZINC000740843182    0.0900
      4 C4        -15.0009   -1.5953   58.7420 C.3     1  ZINC000740843182    0.1200
      5 N5        -13.7847   -1.6791   59.5544 N.am    1  ZINC000740843182   -0.7200
      6 C6        -12.7679   -0.8219   59.3359 C.2     1  ZINC000740843182    0.5500
      7 O7        -12.8593    0.0198   58.4637 O.2     1  ZINC000740843182   -0.5000
      8 C8        -11.5417   -0.9054   60.1567 C.ar    1  ZINC000740843182   -0.1300
      9 C9        -11.3855   -0.0781   61.2700 C.ar    1  ZINC000740843182    0.0200
     10 C10       -10.2388   -0.1614   62.0322 C.ar    1  ZINC000740843182   -0.6800
     11 S11       -10.0402    0.8823   63.4378 S.o2    1  ZINC000740843182    2.7000
     12 O12       -11.3461    1.2863   63.8254 O.2     1  ZINC000740843182   -0.9400
     13 O13        -9.1426    0.2118   64.3119 O.2     1  ZINC000740843182   -0.9500
     14 N14        -9.2601    2.2506   62.9261 N.am    1  ZINC000740843182   -1.0900
     15 C15        -9.8660    3.0971   61.8955 C.3     1  ZINC000740843182    0.0800
     16 C16        -9.7840    4.6128   62.0879 C.3     1  ZINC000740843182   -0.1800
     17 C17        -8.9252    3.9294   61.0219 C.3     1  ZINC000740843182   -0.1900
     18 C18        -9.2442   -1.0627   61.6959 C.ar    1  ZINC000740843182    0.0100
     19 C19        -9.3915   -1.8860   60.5942 C.ar    1  ZINC000740843182   -0.1200
     20 C20       -10.5361   -1.8168   59.8252 C.ar    1  ZINC000740843182    0.0100
     21 Br21      -10.7361   -2.9428   58.3193 Br      1  ZINC000740843182    0.0100
     22 C22       -14.1741   -2.4657   56.5508 C.3     1  ZINC000740843182   -0.1400
     23 C23       -14.8211   -1.3477   55.7308 C.3     1  ZINC000740843182    0.1000
     24 H24       -14.9155   -0.4533   56.3466 H       1  ZINC000740843182    0.1000
     25 C25       -16.2081   -1.7945   55.2644 C.3     1  ZINC000740843182   -0.1900
     26 O26       -14.0061   -1.0588   54.5930 O.3     1  ZINC000740843182   -0.5600
     27 H27       -14.5544   -4.8724   57.7731 H       1  ZINC000740843182    0.0600
     28 H28       -13.4938   -3.8661   58.7883 H       1  ZINC000740843182    0.0600
     29 H29       -15.1434   -4.2522   59.3341 H       1  ZINC000740843182    0.0500
     30 H30       -14.9991   -0.6610   58.1805 H       1  ZINC000740843182    0.0700
     31 H31       -15.8751   -1.6267   59.3924 H       1  ZINC000740843182    0.0700
     32 H32       -13.7113   -2.3515   60.2496 H       1  ZINC000740843182    0.4000
     33 H33       -12.1608    0.6260   61.5339 H       1  ZINC000740843182    0.1500
     34 H34        -8.4020    2.4914   63.3089 H       1  ZINC000740843182    0.4200
     35 H35       -10.7652    2.6968   61.4271 H       1  ZINC000740843182    0.1400
     36 H36       -10.6294    5.2099   61.7464 H       1  ZINC000740843182    0.1100
     37 H37        -9.2791    4.9800   62.9814 H       1  ZINC000740843182    0.1000
     38 H38        -7.8554    3.8471   61.2140 H       1  ZINC000740843182    0.1000
     39 H39        -9.2057    4.0770   59.9789 H       1  ZINC000740843182    0.1100
     40 H40        -8.3486   -1.1235   62.2965 H       1  ZINC000740843182    0.1600
     41 H41        -8.6113   -2.5873   60.3374 H       1  ZINC000740843182    0.1500
     42 H42       -13.1860   -2.1473   56.8832 H       1  ZINC000740843182    0.0700
     43 H43       -14.0797   -3.3600   55.9349 H       1  ZINC000740843182    0.0800
     44 H44       -16.8296   -2.0148   56.1323 H       1  ZINC000740843182    0.0700
     45 H45       -16.6690   -0.9981   54.6801 H       1  ZINC000740843182    0.0600
     46 H46       -16.1137   -2.6889   54.6486 H       1  ZINC000740843182    0.0600
     47 H47       -13.8788   -1.8112   53.9991 H       1  ZINC000740843182    0.3700
@<TRIPOS>BOND
     1     1     2    1
     2     1    27    1
     3     1    28    1
     4     1    29    1
     5     2     3    1
     6     2     4    1
     7     2    22    1
     8     4     5    1
     9     4    30    1
    10     4    31    1
    11     5     6   am
    12     5    32    1
    13     6     7    2
    14     6     8    1
    15     8    20   ar
    16     8     9   ar
    17     9    10   ar
    18     9    33    1
    19    10    11    1
    20    10    18   ar
    21    11    12    2
    22    11    13    2
    23    11    14   am
    24    14    15    1
    25    14    34    1
    26    15    17    1
    27    15    16    1
    28    15    35    1
    29    16    17    1
    30    16    36    1
    31    16    37    1
    32    17    38    1
    33    17    39    1
    34    18    19   ar
    35    18    40    1
    36    19    20   ar
    37    19    41    1
    38    20    21    1
    39    22    23    1
    40    22    42    1
    41    22    43    1
    42    23    24    1
    43    23    25    1
    44    23    26    1
    45    25    44    1
    46    25    45    1
    47    25    46    1
    48    26    47    1
@<TRIPOS>SUBSTRUCTURE
     1 ZINC000740843182        1 TEMP              0 ****  ****    0 ROOT


##########                                Name:    ZINC000175255939
##########                DOCK_Rotatable_Bonds:                   8
##########                         Heavy_Atoms:                  28
##########                    Molecular_Weight:             394.375
##########                DOCK_Rotatable_Bonds:                   8
##########                       Formal_Charge:          -0.0399999
##########                     HBond_Acceptors:                   9
##########                        HBond_Donors:                   1
##########                         Heavy_Atoms:                  28
##########                          Grid_Score:          -28.313213
##########                     Grid_vdw_energy:          -27.954454
##########                      Grid_es_energy:           -0.358758
##########           Internal_energy_repulsive:           15.169967

@<TRIPOS>MOLECULE
ZINC000175255939
 48 50 1 0 0
SMALL
USER_CHARGES


@<TRIPOS>ATOM
      1 C1          2.9940    5.1508   54.3747 C.3     1  ZINC000175255939    0.0300
      2 O2          2.4152    4.0313   53.6535 O.3     1  ZINC000175255939   -0.3600
      3 C3          3.1877    3.4357   52.7313 C.2     1  ZINC000175255939    0.4600
      4 O4          4.3105    3.8359   52.5340 O.2     1  ZINC000175255939   -0.5000
      5 C5          2.6543    2.2680   51.9421 C.3     1  ZINC000175255939   -0.0800
      6 H6          3.1287    2.2455   50.9609 H       1  ZINC000175255939    0.1100
      7 C7          2.9604    0.9668   52.6865 C.3     1  ZINC000175255939   -0.1200
      8 C8          2.4188   -0.2187   51.8852 C.3     1  ZINC000175255939   -0.1100
      9 C9          0.9053   -0.0715   51.7166 C.3     1  ZINC000175255939   -0.1200
     10 C10         0.5992    1.2296   50.9721 C.3     1  ZINC000175255939   -0.1000
     11 H11         1.0736    1.2071   49.9910 H       1  ZINC000175255939    0.1100
     12 C12        -0.8916    1.3746   50.8060 C.2     1  ZINC000175255939    0.5100
     13 O13        -1.4358    0.9432   49.8117 O.2     1  ZINC000175255939   -0.4800
     14 N14        -1.6201    1.9835   51.7625 N.am    1  ZINC000175255939   -0.6300
     15 C15        -2.9927    2.1184   51.6088 C.2     1  ZINC000175255939    0.2100
     16 C16        -3.8397    2.8135   52.4194 C.2     1  ZINC000175255939   -0.2600
     17 C17        -5.1124    2.6294   51.8193 C.2     1  ZINC000175255939    0.0900
     18 C18        -6.4081    3.1753   52.2937 C.ar    1  ZINC000175255939   -0.0500
     19 C19        -7.5490    3.0525   51.5027 C.ar    1  ZINC000175255939   -0.0600
     20 C20        -8.7517    3.5607   51.9460 C.ar    1  ZINC000175255939   -0.1300
     21 C21        -8.8267    4.1948   53.1791 C.ar    1  ZINC000175255939    0.1200
     22 O22       -10.0129    4.6945   53.6134 O.3     1  ZINC000175255939   -0.3200
     23 C23       -10.2144    4.7512   55.0269 C.3     1  ZINC000175255939    0.4100
     24 F24       -11.5274    5.1535   55.2949 F       1  ZINC000175255939   -0.2000
     25 F25        -9.9922    3.4859   55.5808 F       1  ZINC000175255939   -0.2000
     26 C26        -7.6916    4.3185   53.9692 C.ar    1  ZINC000175255939   -0.1900
     27 C27        -6.4876    3.8066   53.5337 C.ar    1  ZINC000175255939   -0.0500
     28 N28        -4.9143    1.8799   50.7611 N.2     1  ZINC000175255939   -0.3600
     29 O29        -3.7469    1.5949   50.6292 O.3     1  ZINC000175255939    0.1200
     30 C30         1.1407    2.4152   51.7734 C.3     1  ZINC000175255939   -0.0900
     31 H31         2.2664    5.5391   55.0875 H       1  ZINC000175255939    0.1000
     32 H32         3.8839    4.8178   54.9089 H       1  ZINC000175255939    0.0600
     33 H33         3.2662    5.9359   53.6693 H       1  ZINC000175255939    0.0600
     34 H34         4.0386    0.8621   52.8066 H       1  ZINC000175255939    0.0800
     35 H35         2.4859    0.9894   53.6676 H       1  ZINC000175255939    0.0700
     36 H36         2.8932   -0.2412   50.9041 H       1  ZINC000175255939    0.0700
     37 H37         2.6369   -1.1456   52.4156 H       1  ZINC000175255939    0.0800
     38 H38         0.5194   -0.9161   51.1457 H       1  ZINC000175255939    0.0700
     39 H39         0.4309   -0.0491   52.6977 H       1  ZINC000175255939    0.0800
     40 H40        -1.1850    2.3274   52.5583 H       1  ZINC000175255939    0.4300
     41 H41        -3.5986    3.3736   53.3107 H       1  ZINC000175255939    0.1800
     42 H42        -7.4911    2.5601   50.5432 H       1  ZINC000175255939    0.1400
     43 H43        -9.6361    3.4659   51.3335 H       1  ZINC000175255939    0.1400
     44 H44        -9.5186    5.4669   55.4648 H       1  ZINC000175255939    0.1900
     45 H45        -7.7529    4.8121   54.9278 H       1  ZINC000175255939    0.1400
     46 H46        -5.6053    3.9029   54.1489 H       1  ZINC000175255939    0.1400
     47 H47         0.6663    2.4377   52.7544 H       1  ZINC000175255939    0.0900
     48 H48         0.9227    3.3422   51.2431 H       1  ZINC000175255939    0.0800
@<TRIPOS>BOND
     1     1     2    1
     2     1    31    1
     3     1    32    1
     4     1    33    1
     5     2     3    1
     6     3     4    2
     7     3     5    1
     8     5     6    1
     9     5    30    1
    10     5     7    1
    11     7     8    1
    12     7    34    1
    13     7    35    1
    14     8     9    1
    15     8    36    1
    16     8    37    1
    17     9    10    1
    18     9    38    1
    19     9    39    1
    20    10    11    1
    21    10    12    1
    22    10    30    1
    23    12    13    2
    24    12    14   am
    25    14    15    1
    26    14    40    1
    27    15    29    1
    28    15    16    2
    29    16    17    1
    30    16    41    1
    31    17    18    1
    32    17    28    2
    33    18    27   ar
    34    18    19   ar
    35    19    20   ar
    36    19    42    1
    37    20    21   ar
    38    20    43    1
    39    21    22    1
    40    21    26   ar
    41    22    23    1
    42    23    24    1
    43    23    25    1
    44    23    44    1
    45    26    27   ar
    46    26    45    1
    47    27    46    1
    48    28    29    1
    49    30    47    1
    50    30    48    1
@<TRIPOS>SUBSTRUCTURE
     1 ZINC000175255939        1 TEMP              0 ****  ****    0 ROOT


##########                                Name:    ZINC000328606936
##########                DOCK_Rotatable_Bonds:                   6
##########                         Heavy_Atoms:                  23
##########                    Molecular_Weight:             338.428
##########                DOCK_Rotatable_Bonds:                   6
##########                       Formal_Charge:           0.0100001
##########                     HBond_Acceptors:                   7
##########                        HBond_Donors:                   2
##########                         Heavy_Atoms:                  23
##########                          Grid_Score:          -28.311520
##########                     Grid_vdw_energy:          -26.438633
##########                      Grid_es_energy:           -1.872886
##########           Internal_energy_repulsive:            5.321260

@<TRIPOS>MOLECULE
ZINC000328606936
 45 47 1 0 0
SMALL
USER_CHARGES


@<TRIPOS>ATOM
      1 C1        -10.8907   -3.4378   57.6170 C.3     1  <0>        -0.0500
      2 N2         -9.7463   -2.8635   58.3369 N.4     1  <0>        -0.3500
      3 H3         -9.3078   -2.1583   57.7637 H       1  <0>         0.4200
      4 C4         -8.7749   -3.9236   58.6376 C.3     1  <0>        -0.0900
      5 C5         -7.6071   -3.8182   57.6909 C.2     1  <0>         0.4900
      6 O6         -7.6666   -4.3373   56.5894 O.co2   1  <0>        -0.6700
      7 O7         -6.6029   -3.2137   58.0266 O.co2   1  <0>        -0.6400
      8 C8        -10.2115   -2.2556   59.5908 C.3     1  <0>         0.0100
      9 H9        -10.4199   -3.0281   60.3310 H       1  <0>         0.1600
     10 C10       -11.4718   -1.4007   59.3375 C.3     1  <0>         0.1000
     11 N11       -11.3167   -0.2313   60.2337 N.am    1  <0>        -0.6200
     12 C12       -12.2702    0.3876   60.9578 C.2     1  <0>         0.6200
     13 O13       -13.4197   -0.0103   60.9170 O.2     1  <0>        -0.5100
     14 C14       -11.9228    1.5401   61.7943 C.2     1  <0>        -0.2800
     15 C15       -11.7255    1.5077   63.1407 C.2     1  <0>        -0.0300
     16 C16       -11.4067    2.7340   63.6943 C.2     1  <0>        -0.1200
     17 C17       -11.3490    3.7431   62.7958 C.2     1  <0>        -0.1900
     18 C18       -11.0195    5.1822   63.1453 C.3     1  <0>        -0.0500
     19 C19       -11.1800    5.3709   64.6559 C.3     1  <0>        -0.1200
     20 C20       -10.4137    4.2608   65.3811 C.3     1  <0>        -0.1200
     21 C21       -11.1446    2.9317   65.1819 C.3     1  <0>        -0.0600
     22 S22       -11.6870    3.1823   61.2188 S.3     1  <0>         0.2000
     23 C23        -9.8758    0.1033   60.1536 C.3     1  <0>         0.0600
     24 C24        -9.1578   -1.2661   60.1303 C.3     1  <0>         0.0800
     25 H25        -8.2957   -1.2305   59.4644 H       1  <0>         0.1000
     26 O26        -8.7509   -1.6362   61.4492 O.3     1  <0>        -0.5400
     27 H27       -11.3644   -4.1995   58.2362 H       1  <0>         0.1100
     28 H28       -11.6115   -2.6510   57.3939 H       1  <0>         0.1100
     29 H29       -10.5455   -3.8888   56.6867 H       1  <0>         0.1600
     30 H30        -8.4224   -3.8133   59.6631 H       1  <0>         0.1200
     31 H31        -9.2513   -4.8970   58.5198 H       1  <0>         0.1300
     32 H32       -11.5103   -1.0794   58.2966 H       1  <0>         0.1000
     33 H33       -12.3699   -1.9616   59.5964 H       1  <0>         0.1200
     34 H34       -11.8109    0.6036   63.7253 H       1  <0>         0.1500
     35 H35        -9.9919    5.4024   62.8564 H       1  <0>         0.0900
     36 H36       -11.7006    5.8511   62.6190 H       1  <0>         0.0800
     37 H37       -10.7782    6.3415   64.9470 H       1  <0>         0.0700
     38 H38       -12.2361    5.3176   64.9201 H       1  <0>         0.0700
     39 H39        -9.4058    4.1874   64.9726 H       1  <0>         0.0700
     40 H40       -10.3601    4.4906   66.4452 H       1  <0>         0.0700
     41 H41       -12.0917    2.9513   65.7210 H       1  <0>         0.0800
     42 H42       -10.5264    2.1153   65.5548 H       1  <0>         0.0800
     43 H43        -9.6650    0.6595   59.2402 H       1  <0>         0.1000
     44 H44        -9.5696    0.6771   61.0283 H       1  <0>         0.1000
     45 H45        -7.8220   -1.8965   61.5157 H       1  <0>         0.4000
@<TRIPOS>BOND
     1     1     2    1
     2     1    27    1
     3     1    28    1
     4     1    29    1
     5     2     3    1
     6     2     4    1
     7     2     8    1
     8     4     5    1
     9     4    30    1
    10     4    31    1
    11     5     6   ar
    12     5     7   ar
    13     8     9    1
    14     8    24    1
    15     8    10    1
    16    10    11    1
    17    10    32    1
    18    10    33    1
    19    11    12   am
    20    11    23    1
    21    12    13    2
    22    12    14    1
    23    14    22    1
    24    14    15    2
    25    15    16    1
    26    15    34    1
    27    16    21    1
    28    16    17    2
    29    17    18    1
    30    17    22    1
    31    18    19    1
    32    18    35    1
    33    18    36    1
    34    19    20    1
    35    19    37    1
    36    19    38    1
    37    20    21    1
    38    20    39    1
    39    20    40    1
    40    21    41    1
    41    21    42    1
    42    23    24    1
    43    23    43    1
    44    23    44    1
    45    24    25    1
    46    24    26    1
    47    26    45    1
@<TRIPOS>SUBSTRUCTURE
     1 <0>         1 TEMP              0 ****  ****    0 ROOT


##########                                Name:    ZINC000347662449
##########                DOCK_Rotatable_Bonds:                   5
##########                         Heavy_Atoms:                  23
##########                    Molecular_Weight:              327.45
##########                DOCK_Rotatable_Bonds:                   5
##########                       Formal_Charge:                0.03
##########                     HBond_Acceptors:                   5
##########                        HBond_Donors:                   0
##########                         Heavy_Atoms:                  23
##########                          Grid_Score:          -28.307682
##########                     Grid_vdw_energy:          -26.986700
##########                      Grid_es_energy:           -1.320983
##########           Internal_energy_repulsive:           15.748495

@<TRIPOS>MOLECULE
ZINC000347662449
 44 46 1 0 0
SMALL
USER_CHARGES


@<TRIPOS>ATOM
      1 C1        -14.4611   -1.0624   53.8943 C.2     1  ZINC000347662449   -0.1800
      2 C2        -14.2937   -1.6805   55.0372 C.2     1  ZINC000347662449   -0.1700
      3 C3        -13.2398   -1.2051   56.0037 C.3     1  ZINC000347662449    0.1600
      4 N4        -13.6656   -1.4995   57.3742 N.am    1  ZINC000347662449   -0.6200
      5 C5        -14.3632   -2.7255   57.7793 C.3     1  ZINC000347662449    0.1100
      6 C6        -14.2147   -2.7958   59.3154 C.3     1  ZINC000347662449   -0.1100
      7 C7        -14.0253   -1.3057   59.6822 C.3     1  ZINC000347662449   -0.1200
      8 H8        -14.9819   -0.8521   59.9417 H       1  ZINC000347662449    0.1400
      9 S9        -12.8528   -1.1343   61.0505 S.3     1  ZINC000347662449    0.0300
     10 C10       -11.3499   -1.5207   60.2158 C.2     1  ZINC000347662449    0.1900
     11 N11       -11.2417   -2.2339   59.1189 N.2     1  ZINC000347662449   -0.4500
     12 C12        -9.9469   -2.3211   58.7703 C.2     1  ZINC000347662449   -0.0100
     13 C13        -9.2177   -1.6433   59.6733 C.2     1  ZINC000347662449   -0.0400
     14 N14       -10.1013   -1.1251   60.5959 N.pl3   1  ZINC000347662449   -0.4000
     15 C15        -9.7773   -0.3466   61.7159 C.ar    1  ZINC000347662449    0.1100
     16 C16        -8.8762   -0.8242   62.6576 C.ar    1  ZINC000347662449   -0.1100
     17 C17        -8.5589   -0.0549   63.7603 C.ar    1  ZINC000347662449   -0.1000
     18 C18        -9.1379    1.1895   63.9264 C.ar    1  ZINC000347662449   -0.0800
     19 C19        -8.7893    2.0265   65.1302 C.3     1  ZINC000347662449   -0.1200
     20 C20       -10.0361    1.6680   62.9900 C.ar    1  ZINC000347662449   -0.0700
     21 C21       -10.6650    3.0250   63.1747 C.3     1  ZINC000347662449   -0.1200
     22 C22       -10.3528    0.9060   61.8826 C.ar    1  ZINC000347662449   -0.1100
     23 C23       -13.4626   -0.6838   58.4231 C.2     1  ZINC000347662449    0.5300
     24 O24       -12.9145    0.3966   58.3671 O.2     1  ZINC000347662449   -0.4900
     25 H25       -13.8437   -0.2121   53.6448 H       1  ZINC000347662449    0.1000
     26 H26       -15.2134   -1.4058   53.1998 H       1  ZINC000347662449    0.1000
     27 H27       -14.9111   -2.5308   55.2866 H       1  ZINC000347662449    0.1100
     28 H28       -12.3000   -1.7173   55.7973 H       1  ZINC000347662449    0.0900
     29 H29       -13.1004   -0.1302   55.8894 H       1  ZINC000347662449    0.0900
     30 H30       -15.4164   -2.6687   57.5043 H       1  ZINC000347662449    0.0800
     31 H31       -13.8978   -3.5951   57.3152 H       1  ZINC000347662449    0.0900
     32 H32       -15.1162   -3.1994   59.7763 H       1  ZINC000347662449    0.1100
     33 H33       -13.3391   -3.3811   59.5963 H       1  ZINC000347662449    0.0900
     34 H34        -9.5581   -2.8464   57.9105 H       1  ZINC000347662449    0.1800
     35 H35        -8.1443   -1.5245   59.6739 H       1  ZINC000347662449    0.1800
     36 H36        -8.4237   -1.7963   62.5285 H       1  ZINC000347662449    0.1300
     37 H37        -7.8581   -0.4261   64.4934 H       1  ZINC000347662449    0.1300
     38 H38        -7.9318    2.6580   64.8976 H       1  ZINC000347662449    0.0800
     39 H39        -9.6406    2.6532   65.3959 H       1  ZINC000347662449    0.0700
     40 H40        -8.5433    1.3737   65.9677 H       1  ZINC000347662449    0.0700
     41 H41       -10.0430    3.7819   62.6969 H       1  ZINC000347662449    0.0800
     42 H42       -11.6565    3.0306   62.7219 H       1  ZINC000347662449    0.0700
     43 H43       -10.7505    3.2439   64.2391 H       1  ZINC000347662449    0.0800
     44 H44       -11.0540    1.2802   61.1515 H       1  ZINC000347662449    0.1300
@<TRIPOS>BOND
     1     1     2    2
     2     1    25    1
     3     1    26    1
     4     2     3    1
     5     2    27    1
     6     3     4    1
     7     3    28    1
     8     3    29    1
     9     4    23   am
    10     4     5    1
    11     5     6    1
    12     5    30    1
    13     5    31    1
    14     6     7    1
    15     6    32    1
    16     6    33    1
    17     7     8    1
    18     7     9    1
    19     7    23    1
    20     9    10    1
    21    10    14    1
    22    10    11    2
    23    11    12    1
    24    12    13    2
    25    12    34    1
    26    13    14    1
    27    13    35    1
    28    14    15    1
    29    15    22   ar
    30    15    16   ar
    31    16    17   ar
    32    16    36    1
    33    17    18   ar
    34    17    37    1
    35    18    19    1
    36    18    20   ar
    37    19    38    1
    38    19    39    1
    39    19    40    1
    40    20    21    1
    41    20    22   ar
    42    21    41    1
    43    21    42    1
    44    21    43    1
    45    22    44    1
    46    23    24    2
@<TRIPOS>SUBSTRUCTURE
     1 ZINC000347662449        1 TEMP              0 ****  ****    0 ROOT


##########                                Name:    ZINC000460972051
##########                DOCK_Rotatable_Bonds:                  10
##########                         Heavy_Atoms:                  29
##########                    Molecular_Weight:             417.572
##########                DOCK_Rotatable_Bonds:                  10
##########                       Formal_Charge:         3.31551e-07
##########                     HBond_Acceptors:                   7
##########                        HBond_Donors:                   2
##########                         Heavy_Atoms:                  29
##########                          Grid_Score:          -28.289753
##########                     Grid_vdw_energy:          -27.064230
##########                      Grid_es_energy:           -1.225524
##########           Internal_energy_repulsive:          141.480225

@<TRIPOS>MOLECULE
ZINC000460972051
 60 61 1 0 0
SMALL
USER_CHARGES


@<TRIPOS>ATOM
      1 C1         -8.6390    6.5126   64.1641 C.3     1  ZINC000460972051   -0.1800
      2 C2        -10.0997    6.1305   63.9166 C.3     1  ZINC000460972051    0.1000
      3 N3        -10.6813    5.5988   65.1517 N.am    1  ZINC000460972051   -0.6200
      4 C4        -10.6155    4.2784   65.4136 C.2     1  ZINC000460972051    0.7100
      5 O5        -11.0995    3.8369   66.4380 O.2     1  ZINC000460972051   -0.5800
      6 N6        -10.0132    3.4473   64.5400 N.am    1  ZINC000460972051   -0.7400
      7 C7         -9.9432    2.0118   64.8239 C.3     1  ZINC000460972051    0.2000
      8 H8        -10.7494    1.7361   65.5038 H       1  ZINC000460972051    0.1100
      9 C9        -10.0859    1.2263   63.5187 C.3     1  ZINC000460972051    0.1100
     10 N10       -10.9957    1.9379   62.6174 N.am    1  ZINC000460972051   -1.1200
     11 S11       -12.2071    1.1150   61.8445 S.o2    1  ZINC000460972051    2.7000
     12 O12       -12.9361    0.4317   62.8548 O.2     1  ZINC000460972051   -0.9500
     13 O13       -12.8054    2.0356   60.9424 O.2     1  ZINC000460972051   -0.9600
     14 C14       -11.4446   -0.1273   60.8545 C.ar    1  ZINC000460972051   -0.6900
     15 C15       -10.0832   -0.0851   60.6201 C.ar    1  ZINC000460972051   -0.0100
     16 C16        -9.4850   -1.0599   59.8434 C.ar    1  ZINC000460972051   -0.1500
     17 C17       -10.2482   -2.0769   59.3017 C.ar    1  ZINC000460972051   -0.0200
     18 C18        -9.5962   -3.1391   58.4546 C.3     1  ZINC000460972051   -0.1300
     19 C19       -11.6099   -2.1199   59.5373 C.ar    1  ZINC000460972051   -0.1500
     20 C20       -12.2074   -1.1475   60.3169 C.ar    1  ZINC000460972051    0.0300
     21 C21       -13.6915   -1.1943   60.5738 C.3     1  ZINC000460972051   -0.1700
     22 C22        -8.6162    1.6898   65.4614 C.ar    1  ZINC000460972051   -0.1000
     23 C23        -8.2642    0.3741   65.6979 C.ar    1  ZINC000460972051   -0.1000
     24 C24        -7.0469    0.0787   66.2827 C.ar    1  ZINC000460972051   -0.1200
     25 C25        -6.1816    1.0990   66.6306 C.ar    1  ZINC000460972051   -0.1200
     26 C26        -6.5333    2.4146   66.3934 C.ar    1  ZINC000460972051   -0.1200
     27 C27        -7.7487    2.7098   65.8046 C.ar    1  ZINC000460972051   -0.1000
     28 C28       -11.3344    6.5024   66.1021 C.3     1  ZINC000460972051    0.1500
     29 C29       -12.8200    6.6200   65.7556 C.3     1  ZINC000460972051   -0.1600
     30 C30       -11.1837    5.9473   67.5198 C.3     1  ZINC000460972051   -0.1600
     31 H31        -8.2063    6.9083   63.2452 H       1  ZINC000460972051    0.0700
     32 H32        -8.5893    7.2713   64.9451 H       1  ZINC000460972051    0.0600
     33 H33        -8.0809    5.6306   64.4782 H       1  ZINC000460972051    0.0700
     34 H34       -10.6579    7.0125   63.6025 H       1  ZINC000460972051    0.0700
     35 H35       -10.1495    5.3718   63.1356 H       1  ZINC000460972051    0.0900
     36 H36        -9.6261    3.7997   63.7235 H       1  ZINC000460972051    0.4000
     37 H37        -9.1090    1.1277   63.0453 H       1  ZINC000460972051    0.0900
     38 H38       -10.4877    0.2359   63.7328 H       1  ZINC000460972051    0.0900
     39 H39       -10.8885    2.8912   62.4735 H       1  ZINC000460972051    0.4200
     40 H40        -9.4867    0.7096   61.0433 H       1  ZINC000460972051    0.1400
     41 H41        -8.4212   -1.0265   59.6595 H       1  ZINC000460972051    0.1300
     42 H42        -9.2761   -3.9648   59.0901 H       1  ZINC000460972051    0.0800
     43 H43       -10.3104   -3.5044   57.7165 H       1  ZINC000460972051    0.0700
     44 H44        -8.7307   -2.7165   57.9444 H       1  ZINC000460972051    0.0700
     45 H45       -12.2063   -2.9147   59.1144 H       1  ZINC000460972051    0.1300
     46 H46       -13.8796   -1.6836   61.5295 H       1  ZINC000460972051    0.0900
     47 H47       -14.0878   -0.1793   60.6010 H       1  ZINC000460972051    0.1000
     48 H48       -14.1808   -1.7542   59.7767 H       1  ZINC000460972051    0.0900
     49 H49        -8.9402   -0.4230   65.4260 H       1  ZINC000460972051    0.1200
     50 H50        -6.7723   -0.9491   66.4681 H       1  ZINC000460972051    0.1200
     51 H51        -5.2309    0.8683   67.0882 H       1  ZINC000460972051    0.1200
     52 H52        -5.8574    3.2118   66.6655 H       1  ZINC000460972051    0.1200
     53 H53        -8.0234    3.7377   65.6193 H       1  ZINC000460972051    0.1200
     54 H54       -10.8693    7.4867   66.0459 H       1  ZINC000460972051    0.1000
     55 H55       -12.9274    7.0154   64.7456 H       1  ZINC000460972051    0.0600
     56 H56       -13.2852    5.6358   65.8116 H       1  ZINC000460972051    0.0600
     57 H57       -13.3060    7.2922   66.4627 H       1  ZINC000460972051    0.0700
     58 H58       -10.1254    5.8635   67.7666 H       1  ZINC000460972051    0.0600
     59 H59       -11.6696    6.6196   68.2269 H       1  ZINC000460972051    0.0700
     60 H60       -11.6489    4.9631   67.5759 H       1  ZINC000460972051    0.0600
@<TRIPOS>BOND
     1     1     2    1
     2     1    31    1
     3     1    32    1
     4     1    33    1
     5     2     3    1
     6     2    34    1
     7     2    35    1
     8     3     4   am
     9     3    28    1
    10     4     5    2
    11     4     6   am
    12     6     7    1
    13     6    36    1
    14     7     8    1
    15     7     9    1
    16     7    22    1
    17     9    10    1
    18     9    37    1
    19     9    38    1
    20    10    11   am
    21    10    39    1
    22    11    12    2
    23    11    13    2
    24    11    14    1
    25    14    20   ar
    26    14    15   ar
    27    15    16   ar
    28    15    40    1
    29    16    17   ar
    30    16    41    1
    31    17    18    1
    32    17    19   ar
    33    18    42    1
    34    18    43    1
    35    18    44    1
    36    19    20   ar
    37    19    45    1
    38    20    21    1
    39    21    46    1
    40    21    47    1
    41    21    48    1
    42    22    27   ar
    43    22    23   ar
    44    23    24   ar
    45    23    49    1
    46    24    25   ar
    47    24    50    1
    48    25    26   ar
    49    25    51    1
    50    26    27   ar
    51    26    52    1
    52    27    53    1
    53    28    29    1
    54    28    30    1
    55    28    54    1
    56    29    55    1
    57    29    56    1
    58    29    57    1
    59    30    58    1
    60    30    59    1
    61    30    60    1
@<TRIPOS>SUBSTRUCTURE
     1 ZINC000460972051        1 TEMP              0 ****  ****    0 ROOT


##########                                Name:    ZINC000879023512
##########                DOCK_Rotatable_Bonds:                   4
##########                         Heavy_Atoms:                  20
##########                    Molecular_Weight:             346.156
##########                DOCK_Rotatable_Bonds:                   4
##########                       Formal_Charge:        -5.96046e-08
##########                     HBond_Acceptors:                   7
##########                        HBond_Donors:                   1
##########                         Heavy_Atoms:                  20
##########                          Grid_Score:          -28.282291
##########                     Grid_vdw_energy:          -27.044762
##########                      Grid_es_energy:           -1.237529
##########           Internal_energy_repulsive:            3.210169

@<TRIPOS>MOLECULE
ZINC000879023512
 33 34 1 0 0
SMALL
USER_CHARGES


@<TRIPOS>ATOM
      1 O1        -11.7532   -0.2794   61.4469 O.2     1  ZINC000879023512   -0.5600
      2 C2        -10.8082   -0.7579   60.8498 C.2     1  ZINC000879023512    0.7200
      3 N3         -9.5500   -0.4590   61.2294 N.am    1  ZINC000879023512   -0.6800
      4 C4         -9.3312    0.4067   62.3074 C.ar    1  ZINC000879023512    0.1800
      5 C5         -9.7544    1.7272   62.2359 C.ar    1  ZINC000879023512   -0.0900
      6 C6         -9.5373    2.5795   63.3011 C.ar    1  ZINC000879023512   -0.0700
      7 C7         -8.8983    2.1185   64.4381 C.ar    1  ZINC000879023512   -0.0700
      8 Br8        -8.6027    3.2881   65.8943 Br      1  ZINC000879023512    0.0200
      9 C9         -8.4755    0.8029   64.5121 C.ar    1  ZINC000879023512    0.0000
     10 N10        -7.7922    0.3132   65.7304 N.pl3   1  ZINC000879023512    0.0200
     11 O11        -7.4198   -0.8446   65.7960 O.2     1  ZINC000879023512   -0.1500
     12 O12        -7.6022    1.0680   66.6672 O.2     1  ZINC000879023512   -0.1300
     13 C13        -8.6956   -0.0550   63.4526 C.ar    1  ZINC000879023512   -0.0500
     14 N14       -11.0190   -1.5914   59.8119 N.am    1  ZINC000879023512   -0.6300
     15 C15        -9.9730   -2.2470   59.0134 C.3     1  ZINC000879023512    0.0900
     16 C16       -10.6820   -3.0811   57.9257 C.3     1  ZINC000879023512   -0.1200
     17 C17       -12.0725   -2.4011   57.8177 C.3     1  ZINC000879023512   -0.1400
     18 H18       -12.0289   -1.5228   57.1736 H       1  ZINC000879023512    0.1000
     19 C19       -13.1294   -3.3897   57.3213 C.3     1  ZINC000879023512    0.0700
     20 F20       -14.3862   -2.7755   57.3364 F       1  ZINC000879023512   -0.2100
     21 C21       -12.3365   -2.0019   59.2933 C.3     1  ZINC000879023512    0.1300
     22 H22        -8.7962   -0.8438   60.7556 H       1  ZINC000879023512    0.4200
     23 H23       -10.2526    2.0877   61.3480 H       1  ZINC000879023512    0.1600
     24 H24        -9.8663    3.6066   63.2459 H       1  ZINC000879023512    0.1600
     25 H25        -8.3657   -1.0817   63.5110 H       1  ZINC000879023512    0.1800
     26 H26        -9.3361   -1.4950   58.5475 H       1  ZINC000879023512    0.0700
     27 H27        -9.3750   -2.8994   59.6498 H       1  ZINC000879023512    0.0700
     28 H28       -10.1460   -3.0154   56.9788 H       1  ZINC000879023512    0.0900
     29 H29       -10.7840   -4.1194   58.2411 H       1  ZINC000879023512    0.0900
     30 H30       -12.8884   -3.6988   56.3042 H       1  ZINC000879023512    0.0800
     31 H31       -13.1441   -4.2635   57.9727 H       1  ZINC000879023512    0.0800
     32 H32       -12.7220   -2.8537   59.8536 H       1  ZINC000879023512    0.0800
     33 H33       -13.0360   -1.1673   59.3411 H       1  ZINC000879023512    0.0900
@<TRIPOS>BOND
     1     1     2    2
     2     2     3   am
     3     2    14   am
     4     3     4    1
     5     3    22    1
     6     4    13   ar
     7     4     5   ar
     8     5     6   ar
     9     5    23    1
    10     6     7   ar
    11     6    24    1
    12     7     8    1
    13     7     9   ar
    14     9    10    1
    15     9    13   ar
    16    10    11    2
    17    10    12    2
    18    13    25    1
    19    14    21    1
    20    14    15    1
    21    15    16    1
    22    15    26    1
    23    15    27    1
    24    16    17    1
    25    16    28    1
    26    16    29    1
    27    17    18    1
    28    17    19    1
    29    17    21    1
    30    19    20    1
    31    19    30    1
    32    19    31    1
    33    21    32    1
    34    21    33    1
@<TRIPOS>SUBSTRUCTURE
     1 ZINC000879023512        1 TEMP              0 ****  ****    0 ROOT


##########                                Name:    ZINC001110536231
##########                DOCK_Rotatable_Bonds:                   8
##########                         Heavy_Atoms:                  24
##########                    Molecular_Weight:             329.442
##########                DOCK_Rotatable_Bonds:                   8
##########                       Formal_Charge:          -0.0400001
##########                     HBond_Acceptors:                   5
##########                        HBond_Donors:                   1
##########                         Heavy_Atoms:                  24
##########                          Grid_Score:          -28.253170
##########                     Grid_vdw_energy:          -27.038383
##########                      Grid_es_energy:           -1.214786
##########           Internal_energy_repulsive:           31.012867

@<TRIPOS>MOLECULE
ZINC001110536231
 51 53 1 0 0
SMALL
USER_CHARGES


@<TRIPOS>ATOM
      1 C1        -12.7759    2.8411   64.7065 C.3     1  ZINC001110536231   -0.1300
      2 C2        -12.1537    1.4474   64.6000 C.3     1  ZINC001110536231   -0.1000
      3 C3        -10.7984    1.5507   63.9491 C.2     1  ZINC001110536231   -0.0200
      4 C4         -9.5720    1.7796   64.7945 C.3     1  ZINC001110536231   -0.1300
      5 C5        -10.6847    1.4399   62.6286 C.2     1  ZINC001110536231   -0.2400
      6 C6        -11.8818    1.2165   61.8035 C.2     1  ZINC001110536231    0.5400
      7 O7        -12.7479    2.0682   61.7453 O.2     1  ZINC001110536231   -0.5300
      8 N8        -12.0187    0.0677   61.1120 N.am    1  ZINC001110536231   -0.7300
      9 C9        -13.2102   -0.1540   60.2889 C.3     1  ZINC001110536231    0.1100
     10 H10       -14.0120    0.5216   60.5866 H       1  ZINC001110536231    0.1000
     11 C11       -13.6743   -1.6278   60.3875 C.3     1  ZINC001110536231   -0.1600
     12 C12       -13.5557   -2.1460   58.9225 C.3     1  ZINC001110536231    0.0500
     13 H13       -13.4859   -3.2280   58.8101 H       1  ZINC001110536231    0.1200
     14 C14       -14.7293   -1.4643   58.1563 C.3     1  ZINC001110536231   -0.1200
     15 C15       -14.2838    0.0151   58.0542 C.3     1  ZINC001110536231   -0.1100
     16 C16       -12.8741    0.0256   58.7776 C.3     1  ZINC001110536231    0.0400
     17 H17       -12.2199    0.8590   58.5216 H       1  ZINC001110536231    0.1200
     18 N18       -12.3701   -1.3562   58.4325 N.3     1  ZINC001110536231   -0.4900
     19 C19       -11.1546   -1.6781   59.1921 C.3     1  ZINC001110536231    0.0600
     20 C20       -10.2354   -2.5132   58.3384 C.ar    1  ZINC001110536231    0.0100
     21 C21       -10.6951   -3.1075   57.1716 C.ar    1  ZINC001110536231   -0.2100
     22 C22        -9.8265   -3.8662   56.4122 C.ar    1  ZINC001110536231    0.1400
     23 N23        -8.5710   -4.0306   56.7829 N.ar    1  ZINC001110536231   -0.5400
     24 C24        -8.0959   -3.4803   57.8880 C.ar    1  ZINC001110536231    0.3200
     25 O25        -6.7978   -3.6752   58.2312 O.3     1  ZINC001110536231   -0.3100
     26 C26        -5.9066   -4.0853   57.1922 C.3     1  ZINC001110536231    0.0400
     27 C27        -8.9116   -2.7004   58.6974 C.ar    1  ZINC001110536231   -0.1700
     28 H28       -13.7560    2.7664   65.1774 H       1  ZINC001110536231    0.0500
     29 H29       -12.1314    3.4817   65.3085 H       1  ZINC001110536231    0.0700
     30 H30       -12.8833    3.2682   63.7094 H       1  ZINC001110536231    0.0400
     31 H31       -12.0462    1.0203   65.5971 H       1  ZINC001110536231    0.0900
     32 H32       -12.7981    0.8069   63.9979 H       1  ZINC001110536231    0.0600
     33 H33        -9.1528    0.8190   65.0942 H       1  ZINC001110536231    0.0800
     34 H34        -8.8320    2.3350   64.2183 H       1  ZINC001110536231    0.0700
     35 H35        -9.8441    2.3502   65.6824 H       1  ZINC001110536231    0.0700
     36 H36        -9.7133    1.5138   62.1623 H       1  ZINC001110536231    0.1200
     37 H37       -11.3285   -0.6121   61.1593 H       1  ZINC001110536231    0.4000
     38 H38       -13.0180   -2.1934   61.0489 H       1  ZINC001110536231    0.0700
     39 H39       -14.7072   -1.6826   60.7315 H       1  ZINC001110536231    0.0800
     40 H40       -14.8439   -1.8999   57.1638 H       1  ZINC001110536231    0.0700
     41 H41       -15.6569   -1.5475   58.7226 H       1  ZINC001110536231    0.0700
     42 H42       -14.1778    0.3127   57.0110 H       1  ZINC001110536231    0.0800
     43 H43       -14.9907    0.6651   58.5698 H       1  ZINC001110536231    0.0700
     44 H44       -10.6485   -0.7555   59.4759 H       1  ZINC001110536231    0.0900
     45 H45       -11.4237   -2.2358   60.0891 H       1  ZINC001110536231    0.0700
     46 H46       -11.7215   -2.9784   56.8610 H       1  ZINC001110536231    0.1300
     47 H47       -10.1793   -4.3310   55.5035 H       1  ZINC001110536231    0.1600
     48 H48        -4.9030   -4.2050   57.6005 H       1  ZINC001110536231    0.1000
     49 H49        -6.2453   -5.0343   56.7764 H       1  ZINC001110536231    0.0600
     50 H50        -5.8916   -3.3294   56.4069 H       1  ZINC001110536231    0.0600
     51 H51        -8.5204   -2.2523   59.5988 H       1  ZINC001110536231    0.1400
@<TRIPOS>BOND
     1     1     2    1
     2     1    28    1
     3     1    29    1
     4     1    30    1
     5     2     3    1
     6     2    31    1
     7     2    32    1
     8     3     4    1
     9     3     5    2
    10     4    33    1
    11     4    34    1
    12     4    35    1
    13     5     6    1
    14     5    36    1
    15     6     7    2
    16     6     8   am
    17     8     9    1
    18     8    37    1
    19     9    10    1
    20     9    16    1
    21     9    11    1
    22    11    12    1
    23    11    38    1
    24    11    39    1
    25    12    13    1
    26    12    18    1
    27    12    14    1
    28    14    15    1
    29    14    40    1
    30    14    41    1
    31    15    16    1
    32    15    42    1
    33    15    43    1
    34    16    17    1
    35    16    18    1
    36    18    19    1
    37    19    20    1
    38    19    44    1
    39    19    45    1
    40    20    27   ar
    41    20    21   ar
    42    21    22   ar
    43    21    46    1
    44    22    23   ar
    45    22    47    1
    46    23    24   ar
    47    24    25    1
    48    24    27   ar
    49    25    26    1
    50    26    48    1
    51    26    49    1
    52    26    50    1
    53    27    51    1
@<TRIPOS>SUBSTRUCTURE
     1 ZINC001110536231        1 TEMP              0 ****  ****    0 ROOT


##########                                Name:    ZINC000632456679
##########                DOCK_Rotatable_Bonds:                   6
##########                         Heavy_Atoms:                  24
##########                    Molecular_Weight:              374.82
##########                DOCK_Rotatable_Bonds:                   6
##########                       Formal_Charge:          -0.0299999
##########                     HBond_Acceptors:                   9
##########                        HBond_Donors:                   1
##########                         Heavy_Atoms:                  24
##########                          Grid_Score:          -28.214531
##########                     Grid_vdw_energy:          -27.439848
##########                      Grid_es_energy:           -0.774683
##########           Internal_energy_repulsive:           57.323788

@<TRIPOS>MOLECULE
ZINC000632456679
 40 41 1 0 0
SMALL
USER_CHARGES


@<TRIPOS>ATOM
      1 C1         -7.7705    5.5017   52.2106 C.3     1  ZINC000632456679   -0.1600
      2 C2         -7.8474    4.1631   51.4736 C.3     1  ZINC000632456679    0.1900
      3 C3         -8.6702    3.1724   52.2997 C.3     1  ZINC000632456679   -0.2000
      4 C4         -8.5137    4.3684   50.1117 C.3     1  ZINC000632456679   -0.6300
      5 S5        -10.2837    4.6885   50.3467 S.o2    1  ZINC000632456679    2.4100
      6 C6        -10.8573    4.8950   48.6382 C.3     1  ZINC000632456679   -0.6600
      7 O7        -10.8867    3.5215   50.8888 O.2     1  ZINC000632456679   -0.9300
      8 O8        -10.4335    5.9269   51.0273 O.2     1  ZINC000632456679   -0.9300
      9 N9         -6.4952    3.6334   51.2808 N.am    1  ZINC000632456679   -0.7200
     10 C10        -5.7101    3.3855   52.3478 C.2     1  ZINC000632456679    0.6200
     11 O11        -6.1235    3.6030   53.4703 O.2     1  ZINC000632456679   -0.5000
     12 C12        -4.3490    2.8505   52.1538 C.2     1  ZINC000632456679   -0.0900
     13 C13        -3.2492    3.1120   52.9208 C.2     1  ZINC000632456679   -0.1300
     14 C14        -2.2170    2.3531   52.3036 C.2     1  ZINC000632456679    0.0400
     15 C15        -0.7984    2.2674   52.7309 C.ar    1  ZINC000632456679   -0.0500
     16 C16        -0.3680    2.9493   53.8669 C.ar    1  ZINC000632456679   -0.0600
     17 C17         0.9524    2.8667   54.2605 C.ar    1  ZINC000632456679   -0.1100
     18 C18         1.8499    2.1090   53.5300 C.ar    1  ZINC000632456679   -0.0700
     19 C19         1.4306    1.4286   52.4004 C.ar    1  ZINC000632456679   -0.0800
     20 Cl20        2.5635    0.4800   51.4892 Cl      1  ZINC000632456679   -0.0400
     21 C21         0.1081    1.4989   51.9997 C.ar    1  ZINC000632456679    0.1400
     22 F22        -0.3019    0.8346   50.8971 F       1  ZINC000632456679   -0.1100
     23 N23        -2.7680    1.7443   51.2835 N.2     1  ZINC000632456679   -0.3200
     24 O24        -3.9451    2.0024   51.1890 O.3     1  ZINC000632456679    0.1400
     25 H25        -7.2959    5.3554   53.1809 H       1  ZINC000632456679    0.0900
     26 H26        -7.1844    6.2073   51.6221 H       1  ZINC000632456679    0.0600
     27 H27        -8.7766    5.8958   52.3541 H       1  ZINC000632456679    0.0700
     28 H28        -9.6763    3.5665   52.4431 H       1  ZINC000632456679    0.0800
     29 H29        -8.7251    2.2189   51.7745 H       1  ZINC000632456679    0.0800
     30 H30        -8.1955    3.0262   53.2700 H       1  ZINC000632456679    0.0900
     31 H31        -8.0546    5.2185   49.6071 H       1  ZINC000632456679    0.1600
     32 H32        -8.3840    3.4724   49.5048 H       1  ZINC000632456679    0.1400
     33 H33       -10.6587    3.9828   48.0755 H       1  ZINC000632456679    0.1300
     34 H34       -11.9284    5.0970   48.6364 H       1  ZINC000632456679    0.1300
     35 H35       -10.3295    5.7292   48.1760 H       1  ZINC000632456679    0.1300
     36 H36        -6.1649    3.4611   50.3852 H       1  ZINC000632456679    0.4200
     37 H37        -3.1798    3.7471   53.7917 H       1  ZINC000632456679    0.1900
     38 H38        -1.0665    3.5421   54.4387 H       1  ZINC000632456679    0.1500
     39 H39         1.2857    3.3954   55.1413 H       1  ZINC000632456679    0.1500
     40 H40         2.8820    2.0487   53.8423 H       1  ZINC000632456679    0.1500
@<TRIPOS>BOND
     1     1     2    1
     2     1    25    1
     3     1    26    1
     4     1    27    1
     5     2     3    1
     6     2     4    1
     7     2     9    1
     8     3    28    1
     9     3    29    1
    10     3    30    1
    11     4     5    1
    12     4    31    1
    13     4    32    1
    14     5     6    1
    15     5     7    2
    16     5     8    2
    17     6    33    1
    18     6    34    1
    19     6    35    1
    20     9    10   am
    21     9    36    1
    22    10    11    2
    23    10    12    1
    24    12    24    1
    25    12    13    2
    26    13    14    1
    27    13    37    1
    28    14    15    1
    29    14    23    2
    30    15    21   ar
    31    15    16   ar
    32    16    17   ar
    33    16    38    1
    34    17    18   ar
    35    17    39    1
    36    18    19   ar
    37    18    40    1
    38    19    20    1
    39    19    21   ar
    40    21    22    1
    41    23    24    1
@<TRIPOS>SUBSTRUCTURE
     1 ZINC000632456679        1 TEMP              0 ****  ****    0 ROOT


##########                                Name:    ZINC000892249927
##########                DOCK_Rotatable_Bonds:                   8
##########                         Heavy_Atoms:                  27
##########                    Molecular_Weight:             364.487
##########                DOCK_Rotatable_Bonds:                   8
##########                       Formal_Charge:          -0.0300015
##########                     HBond_Acceptors:                   4
##########                        HBond_Donors:                   1
##########                         Heavy_Atoms:                  27
##########                          Grid_Score:          -28.183546
##########                     Grid_vdw_energy:          -28.210449
##########                      Grid_es_energy:            0.026904
##########           Internal_energy_repulsive:           19.095415

@<TRIPOS>MOLECULE
ZINC000892249927
 55 58 1 0 0
SMALL
USER_CHARGES


@<TRIPOS>ATOM
      1 O1        -13.6503    1.7913   59.1092 O.2     1  ZINC000892249927   -0.5300
      2 C2        -13.7111    1.0654   60.0789 C.2     1  ZINC000892249927    0.5100
      3 C3        -13.6152    1.6496   61.4647 C.3     1  ZINC000892249927   -0.1400
      4 C4        -13.1269    3.0969   61.3754 C.3     1  ZINC000892249927   -0.1000
      5 C5        -11.6287    3.1115   61.0656 C.3     1  ZINC000892249927   -0.0800
      6 C6        -10.8827    2.3910   62.1589 C.ar    1  ZINC000892249927   -0.0900
      7 C7        -11.0311    2.7882   63.4746 C.ar    1  ZINC000892249927   -0.1100
      8 C8        -10.3466    2.1273   64.4775 C.ar    1  ZINC000892249927   -0.1100
      9 C9         -9.5143    1.0689   64.1647 C.ar    1  ZINC000892249927   -0.0500
     10 C10        -8.7679    0.3487   65.2580 C.3     1  ZINC000892249927   -0.1200
     11 C11        -8.6630   -1.1743   65.1568 C.3     1  ZINC000892249927   -0.1800
     12 C12        -7.4334   -0.3033   64.8911 C.3     1  ZINC000892249927   -0.1700
     13 C13        -9.3671    0.6708   62.8492 C.ar    1  ZINC000892249927   -0.1200
     14 C14       -10.0544    1.3292   61.8467 C.ar    1  ZINC000892249927   -0.1100
     15 N15       -13.8701   -0.2632   59.9173 N.am    1  ZINC000892249927   -0.7300
     16 C16       -13.9634   -0.8311   58.5701 C.3     1  ZINC000892249927    0.1400
     17 H17       -14.3296   -0.0721   57.8789 H       1  ZINC000892249927    0.1000
     18 C18       -14.9270   -2.0216   58.5814 C.3     1  ZINC000892249927   -0.1700
     19 C19       -14.3657   -3.1139   59.4957 C.3     1  ZINC000892249927    0.0600
     20 O20       -13.0658   -3.4936   59.0394 O.3     1  ZINC000892249927   -0.3700
     21 C21       -12.1097   -2.4316   59.0521 C.3     1  ZINC000892249927    0.1400
     22 H22       -12.0112   -2.0433   60.0657 H       1  ZINC000892249927    0.0700
     23 C23       -10.7758   -2.9507   58.5807 C.ar    1  ZINC000892249927   -0.1400
     24 C24        -9.7002   -3.0163   59.4528 C.ar    1  ZINC000892249927   -0.0700
     25 C25        -8.4920   -3.5012   58.9755 C.ar    1  ZINC000892249927   -0.1700
     26 C26        -8.4008   -3.9003   57.6556 C.ar    1  ZINC000892249927    0.1000
     27 N27        -9.4454   -3.8238   56.8540 N.ar    1  ZINC000892249927   -0.4900
     28 C28       -10.6108   -3.3730   57.2749 C.ar    1  ZINC000892249927    0.1300
     29 C29       -12.5800   -1.3100   58.1191 C.3     1  ZINC000892249927   -0.1500
     30 H30       -14.5970    1.6260   61.9378 H       1  ZINC000892249927    0.0900
     31 H31       -12.9120    1.0650   62.0577 H       1  ZINC000892249927    0.0900
     32 H32       -13.6671    3.6143   60.5825 H       1  ZINC000892249927    0.0700
     33 H33       -13.3064    3.6002   62.3254 H       1  ZINC000892249927    0.0700
     34 H34       -11.4497    2.6120   60.1135 H       1  ZINC000892249927    0.0700
     35 H35       -11.2800    4.1425   61.0063 H       1  ZINC000892249927    0.0700
     36 H36       -11.6813    3.6151   63.7190 H       1  ZINC000892249927    0.1200
     37 H37       -10.4620    2.4381   65.5054 H       1  ZINC000892249927    0.1200
     38 H38        -8.8594    0.7822   66.2540 H       1  ZINC000892249927    0.1100
     39 H39        -8.6853   -1.7432   66.0863 H       1  ZINC000892249927    0.1000
     40 H40        -9.1337   -1.6554   64.2995 H       1  ZINC000892249927    0.1000
     41 H41        -7.0953   -0.2115   63.8590 H       1  ZINC000892249927    0.1000
     42 H42        -6.6469   -0.2993   65.6458 H       1  ZINC000892249927    0.1000
     43 H43        -8.7171   -0.1564   62.6048 H       1  ZINC000892249927    0.1200
     44 H44        -9.9393    1.0182   60.8189 H       1  ZINC000892249927    0.1200
     45 H45       -13.9228   -0.8432   60.6930 H       1  ZINC000892249927    0.4000
     46 H46       -15.8996   -1.6995   58.9535 H       1  ZINC000892249927    0.0800
     47 H47       -15.0344   -2.4131   57.5698 H       1  ZINC000892249927    0.0800
     48 H48       -14.2966   -2.7345   60.5152 H       1  ZINC000892249927    0.0500
     49 H49       -15.0261   -3.9807   59.4742 H       1  ZINC000892249927    0.1000
     50 H50        -9.8008   -2.6968   60.4796 H       1  ZINC000892249927    0.1300
     51 H51        -7.6330   -3.5659   59.6268 H       1  ZINC000892249927    0.1400
     52 H52        -7.4633   -4.2788   57.2759 H       1  ZINC000892249927    0.1600
     53 H53       -11.4438   -3.3250   56.5891 H       1  ZINC000892249927    0.1600
     54 H54       -12.6398   -1.6866   57.0979 H       1  ZINC000892249927    0.0900
     55 H55       -11.8738   -0.4808   58.1617 H       1  ZINC000892249927    0.0800
@<TRIPOS>BOND
     1     1     2    2
     2     2     3    1
     3     2    15   am
     4     3     4    1
     5     3    30    1
     6     3    31    1
     7     4     5    1
     8     4    32    1
     9     4    33    1
    10     5     6    1
    11     5    34    1
    12     5    35    1
    13     6    14   ar
    14     6     7   ar
    15     7     8   ar
    16     7    36    1
    17     8     9   ar
    18     8    37    1
    19     9    10    1
    20     9    13   ar
    21    10    12    1
    22    10    11    1
    23    10    38    1
    24    11    12    1
    25    11    39    1
    26    11    40    1
    27    12    41    1
    28    12    42    1
    29    13    14   ar
    30    13    43    1
    31    14    44    1
    32    15    16    1
    33    15    45    1
    34    16    17    1
    35    16    29    1
    36    16    18    1
    37    18    19    1
    38    18    46    1
    39    18    47    1
    40    19    20    1
    41    19    48    1
    42    19    49    1
    43    20    21    1
    44    21    22    1
    45    21    23    1
    46    21    29    1
    47    23    28   ar
    48    23    24   ar
    49    24    25   ar
    50    24    50    1
    51    25    26   ar
    52    25    51    1
    53    26    27   ar
    54    26    52    1
    55    27    28   ar
    56    28    53    1
    57    29    54    1
    58    29    55    1
@<TRIPOS>SUBSTRUCTURE
     1 ZINC000892249927        1 TEMP              0 ****  ****    0 ROOT


##########                                Name:    ZINC000425987417
##########                DOCK_Rotatable_Bonds:                   9
##########                         Heavy_Atoms:                  25
##########                    Molecular_Weight:             357.419
##########                DOCK_Rotatable_Bonds:                   9
##########                       Formal_Charge:         -0.00999992
##########                     HBond_Acceptors:                   7
##########                        HBond_Donors:                   1
##########                         Heavy_Atoms:                  25
##########                          Grid_Score:          -28.167339
##########                     Grid_vdw_energy:          -24.561983
##########                      Grid_es_energy:           -3.605356
##########           Internal_energy_repulsive:           23.515862

@<TRIPOS>MOLECULE
ZINC000425987417
 51 52 1 0 0
SMALL
USER_CHARGES


@<TRIPOS>ATOM
      1 C1         -7.5655    0.9598   65.9478 C.3     1  ZINC000425987417   -0.1500
      2 C2         -8.1596    2.3451   66.2110 C.3     1  ZINC000425987417    0.0400
      3 N3         -8.5888    2.9433   64.9399 N.3     1  ZINC000425987417   -0.5300
      4 C4        -10.0497    3.0902   64.8939 C.3     1  ZINC000425987417    0.0400
      5 C5        -10.6970    1.7103   64.7607 C.3     1  ZINC000425987417    0.1400
      6 N6        -10.6009    1.2579   63.3706 N.am    1  ZINC000425987417   -0.7500
      7 C7        -11.7212    1.0391   62.6541 C.2     1  ZINC000425987417    0.7200
      8 O8        -12.8117    1.2173   63.1614 O.2     1  ZINC000425987417   -0.5800
      9 N9        -11.6327    0.6230   61.3753 N.am    1  ZINC000425987417   -0.6200
     10 C10       -12.8372    0.3750   60.5658 C.3     1  ZINC000425987417    0.1300
     11 C11       -12.8732   -1.1131   60.2209 C.3     1  ZINC000425987417   -0.1000
     12 C12       -11.5333   -1.5787   59.7152 C.ar    1  ZINC000425987417   -0.0600
     13 C13       -11.4974   -2.7519   58.9720 C.ar    1  ZINC000425987417   -0.1200
     14 C14       -10.3014   -3.2392   58.4870 C.ar    1  ZINC000425987417   -0.1100
     15 C15        -9.1267   -2.5569   58.7426 C.ar    1  ZINC000425987417   -0.1200
     16 C16        -9.1599   -1.3894   59.4777 C.ar    1  ZINC000425987417   -0.1100
     17 C17       -10.3633   -0.8952   59.9612 C.ar    1  ZINC000425987417   -0.0900
     18 C18       -10.3324    0.4048   60.7324 C.3     1  ZINC000425987417    0.1800
     19 H19        -9.5547    0.3560   61.4946 H       1  ZINC000425987417    0.0900
     20 C20       -10.0337    1.5588   59.7732 C.3     1  ZINC000425987417   -0.1600
     21 C21        -7.9226    4.2329   64.7134 C.3     1  ZINC000425987417    0.0500
     22 C22        -8.2883    4.7589   63.3240 C.3     1  ZINC000425987417   -0.1600
     23 C23        -7.5946    6.1019   63.0882 C.3     1  ZINC000425987417    0.4500
     24 F24        -6.2084    5.9320   63.1725 F       1  ZINC000425987417   -0.1800
     25 F25        -7.9289    6.5829   61.8178 F       1  ZINC000425987417   -0.1800
     26 F26        -8.0117    7.0191   64.0587 F       1  ZINC000425987417   -0.1900
     27 H27        -6.6805    1.0576   65.3190 H       1  ZINC000425987417    0.0500
     28 H28        -7.2889    0.4972   66.8952 H       1  ZINC000425987417    0.0600
     29 H29        -8.3039    0.3380   65.4417 H       1  ZINC000425987417    0.0700
     30 H30        -9.0175    2.2519   66.8767 H       1  ZINC000425987417    0.0800
     31 H31        -7.4062    2.9811   66.6758 H       1  ZINC000425987417    0.0400
     32 H32       -10.3959    3.5670   65.8110 H       1  ZINC000425987417    0.0500
     33 H33       -10.3262    3.7055   64.0378 H       1  ZINC000425987417    0.0800
     34 H34       -10.1810    1.0028   65.4096 H       1  ZINC000425987417    0.0800
     35 H35       -11.7459    1.7715   65.0511 H       1  ZINC000425987417    0.0700
     36 H36        -9.7309    1.1158   62.9660 H       1  ZINC000425987417    0.3900
     37 H37       -13.7265    0.6430   61.1363 H       1  ZINC000425987417    0.1000
     38 H38       -12.7941    0.9648   59.6502 H       1  ZINC000425987417    0.0700
     39 H39       -13.1371   -1.6814   61.1127 H       1  ZINC000425987417    0.0800
     40 H40       -13.6261   -1.2846   59.4516 H       1  ZINC000425987417    0.0900
     41 H41       -12.4138   -3.2875   58.7726 H       1  ZINC000425987417    0.1200
     42 H42       -10.2828   -4.1517   57.9095 H       1  ZINC000425987417    0.1200
     43 H43        -8.1871   -2.9360   58.3690 H       1  ZINC000425987417    0.1200
     44 H44        -8.2423   -0.8563   59.6782 H       1  ZINC000425987417    0.1200
     45 H45       -10.8103    1.6072   59.0100 H       1  ZINC000425987417    0.0700
     46 H46       -10.0113    2.4964   60.3287 H       1  ZINC000425987417    0.0600
     47 H47        -9.0667    1.3950   59.2978 H       1  ZINC000425987417    0.0700
     48 H48        -8.2478    4.9475   65.4696 H       1  ZINC000425987417    0.0500
     49 H49        -6.8427    4.1005   64.7792 H       1  ZINC000425987417    0.0900
     50 H50        -7.9632    4.0443   62.5679 H       1  ZINC000425987417    0.1200
     51 H51        -9.3682    4.8912   63.2583 H       1  ZINC000425987417    0.1100
@<TRIPOS>BOND
     1     1     2    1
     2     1    27    1
     3     1    28    1
     4     1    29    1
     5     2     3    1
     6     2    30    1
     7     2    31    1
     8     3     4    1
     9     3    21    1
    10     4     5    1
    11     4    32    1
    12     4    33    1
    13     5     6    1
    14     5    34    1
    15     5    35    1
    16     6     7   am
    17     6    36    1
    18     7     8    2
    19     7     9   am
    20     9    18    1
    21     9    10    1
    22    10    11    1
    23    10    37    1
    24    10    38    1
    25    11    12    1
    26    11    39    1
    27    11    40    1
    28    12    17   ar
    29    12    13   ar
    30    13    14   ar
    31    13    41    1
    32    14    15   ar
    33    14    42    1
    34    15    16   ar
    35    15    43    1
    36    16    17   ar
    37    16    44    1
    38    17    18    1
    39    18    19    1
    40    18    20    1
    41    20    45    1
    42    20    46    1
    43    20    47    1
    44    21    22    1
    45    21    48    1
    46    21    49    1
    47    22    23    1
    48    22    50    1
    49    22    51    1
    50    23    24    1
    51    23    25    1
    52    23    26    1
@<TRIPOS>SUBSTRUCTURE
     1 ZINC000425987417        1 TEMP              0 ****  ****    0 ROOT


##########                                Name:    ZINC000124554441
##########                DOCK_Rotatable_Bonds:                   9
##########                         Heavy_Atoms:                  26
##########                    Molecular_Weight:             375.898
##########                DOCK_Rotatable_Bonds:                   9
##########                       Formal_Charge:         -0.00999991
##########                     HBond_Acceptors:                   6
##########                        HBond_Donors:                   1
##########                         Heavy_Atoms:                  26
##########                          Grid_Score:          -28.141148
##########                     Grid_vdw_energy:          -25.240383
##########                      Grid_es_energy:           -2.900764
##########           Internal_energy_repulsive:           14.387626

@<TRIPOS>MOLECULE
ZINC000124554441
 52 53 1 0 0
SMALL
USER_CHARGES


@<TRIPOS>ATOM
      1 C1         -2.5721    4.8304   54.6938 C.3     1  ZINC000124554441   -0.1500
      2 C2         -2.1555    5.3710   56.0631 C.3     1  ZINC000124554441   -0.1300
      3 C3         -2.9501    4.6554   57.1573 C.3     1  ZINC000124554441   -0.1200
      4 C4         -4.4461    4.8868   56.9353 C.3     1  ZINC000124554441   -0.1200
      5 C5         -5.2306    4.3277   58.1240 C.3     1  ZINC000124554441   -0.1300
      6 C6         -6.7303    4.4799   57.8623 C.3     1  ZINC000124554441    0.1200
      7 N7         -7.4733    4.1738   59.0872 N.am    1  ZINC000124554441   -0.7300
      8 C8         -8.7046    3.6309   59.0108 C.2     1  ZINC000124554441    0.5200
      9 O9         -9.1980    3.3972   57.9279 O.2     1  ZINC000124554441   -0.5300
     10 C10        -9.4681    3.3144   60.2709 C.3     1  ZINC000124554441   -0.1200
     11 H11        -8.7956    2.8625   61.0000 H       1  ZINC000124554441    0.1000
     12 C12       -10.0565    4.6035   60.8490 C.3     1  ZINC000124554441   -0.1000
     13 C13       -10.8044    4.2880   62.1464 C.3     1  ZINC000124554441   -0.1400
     14 C14       -11.9559    3.3233   61.8456 C.3     1  ZINC000124554441    0.0900
     15 N15       -11.4161    2.1425   61.1577 N.am    1  ZINC000124554441   -0.6000
     16 C16       -11.6611    0.9029   61.6265 C.2     1  ZINC000124554441    0.5600
     17 O17       -12.3344    0.7537   62.6273 O.2     1  ZINC000124554441   -0.5200
     18 C18       -11.1107   -0.2761   60.9229 C.ar    1  ZINC000124554441   -0.0900
     19 C19        -9.8372   -0.7494   61.2451 C.ar    1  ZINC000124554441   -0.0900
     20 C20        -9.3236   -1.8470   60.5907 C.ar    1  ZINC000124554441   -0.0600
     21 C21       -10.0763   -2.4873   59.6038 C.ar    1  ZINC000124554441    0.0100
     22 C22        -9.5425   -3.6285   58.9232 C.1     1  ZINC000124554441    0.2400
     23 N23        -9.1188   -4.5340   58.3834 N.1     1  ZINC000124554441   -0.3800
     24 C24       -11.3516   -2.0137   59.2807 C.ar    1  ZINC000124554441    0.0000
     25 Cl25      -12.2886   -2.8089   58.0545 Cl      1  ZINC000124554441   -0.0400
     26 C26       -11.8670   -0.9185   59.9409 C.ar    1  ZINC000124554441   -0.0600
     27 C27       -10.6039    2.3381   59.9490 C.3     1  ZINC000124554441    0.1200
     28 H28        -2.3698    3.7602   54.6488 H       1  ZINC000124554441    0.0500
     29 H29        -3.6373    5.0054   54.5428 H       1  ZINC000124554441    0.0500
     30 H30        -2.0061    5.3402   53.9143 H       1  ZINC000124554441    0.0500
     31 H31        -1.0903    5.1959   56.2141 H       1  ZINC000124554441    0.0600
     32 H32        -2.3578    6.4412   56.1081 H       1  ZINC000124554441    0.0600
     33 H33        -2.7383    3.5868   57.1202 H       1  ZINC000124554441    0.0600
     34 H34        -2.6622    5.0492   58.1320 H       1  ZINC000124554441    0.0600
     35 H35        -4.6387    5.9558   56.8434 H       1  ZINC000124554441    0.0700
     36 H36        -4.7605    4.3812   56.0224 H       1  ZINC000124554441    0.0700
     37 H37        -4.9898    3.2726   58.2543 H       1  ZINC000124554441    0.0700
     38 H38        -4.9619    4.8759   59.0269 H       1  ZINC000124554441    0.0700
     39 H39        -6.9433    5.5036   57.5544 H       1  ZINC000124554441    0.0700
     40 H40        -7.0330    3.7925   57.0725 H       1  ZINC000124554441    0.0700
     41 H41        -7.0792    4.3619   59.9534 H       1  ZINC000124554441    0.4000
     42 H42        -9.2518    5.3090   61.0561 H       1  ZINC000124554441    0.0800
     43 H43       -10.7474    5.0422   60.1291 H       1  ZINC000124554441    0.0800
     44 H44       -10.1197    3.8266   62.8580 H       1  ZINC000124554441    0.0700
     45 H45       -11.2033    5.2098   62.5698 H       1  ZINC000124554441    0.0900
     46 H46       -12.4298    3.0179   62.7785 H       1  ZINC000124554441    0.1000
     47 H47       -12.6877    3.8162   61.2057 H       1  ZINC000124554441    0.0800
     48 H48        -9.2545   -0.2542   62.0077 H       1  ZINC000124554441    0.1500
     49 H49        -8.3386   -2.2124   60.8405 H       1  ZINC000124554441    0.1500
     50 H50       -12.8519   -0.5521   59.6921 H       1  ZINC000124554441    0.1500
     51 H51       -11.2251    2.7508   59.1541 H       1  ZINC000124554441    0.0800
     52 H52       -10.1864    1.3828   59.6307 H       1  ZINC000124554441    0.1000
@<TRIPOS>BOND
     1     1     2    1
     2     1    28    1
     3     1    29    1
     4     1    30    1
     5     2     3    1
     6     2    31    1
     7     2    32    1
     8     3     4    1
     9     3    33    1
    10     3    34    1
    11     4     5    1
    12     4    35    1
    13     4    36    1
    14     5     6    1
    15     5    37    1
    16     5    38    1
    17     6     7    1
    18     6    39    1
    19     6    40    1
    20     7     8   am
    21     7    41    1
    22     8     9    2
    23     8    10    1
    24    10    11    1
    25    10    27    1
    26    10    12    1
    27    12    13    1
    28    12    42    1
    29    12    43    1
    30    13    14    1
    31    13    44    1
    32    13    45    1
    33    14    15    1
    34    14    46    1
    35    14    47    1
    36    15    16   am
    37    15    27    1
    38    16    17    2
    39    16    18    1
    40    18    26   ar
    41    18    19   ar
    42    19    20   ar
    43    19    48    1
    44    20    21   ar
    45    20    49    1
    46    21    22    1
    47    21    24   ar
    48    22    23    3
    49    24    25    1
    50    24    26   ar
    51    26    50    1
    52    27    51    1
    53    27    52    1
@<TRIPOS>SUBSTRUCTURE
     1 ZINC000124554441        1 TEMP              0 ****  ****    0 ROOT


##########                                Name:    ZINC000190927708
##########                DOCK_Rotatable_Bonds:                  10
##########                         Heavy_Atoms:                  26
##########                    Molecular_Weight:             358.437
##########                DOCK_Rotatable_Bonds:                  10
##########                       Formal_Charge:           0.0499998
##########                     HBond_Acceptors:                   6
##########                        HBond_Donors:                   1
##########                         Heavy_Atoms:                  26
##########                          Grid_Score:          -28.139502
##########                     Grid_vdw_energy:          -25.594311
##########                      Grid_es_energy:           -2.545190
##########           Internal_energy_repulsive:           32.693073

@<TRIPOS>MOLECULE
ZINC000190927708
 52 53 1 0 0
SMALL
USER_CHARGES


@<TRIPOS>ATOM
      1 C1        -13.3955    4.1219   58.0783 C.3     1  ZINC000190927708   -0.1500
      2 C2        -12.2847    3.2782   58.7072 C.3     1  ZINC000190927708   -0.1500
      3 C3        -11.7984    3.9514   59.9921 C.3     1  ZINC000190927708    0.1000
      4 N4        -11.1996    2.9462   60.8736 N.am    1  ZINC000190927708   -0.5900
      5 C5        -11.9837    2.0470   61.5008 C.2     1  ZINC000190927708    0.5300
      6 O6        -13.1850    2.0711   61.3365 O.2     1  ZINC000190927708   -0.5300
      7 C7        -11.3675    1.0118   62.4061 C.3     1  ZINC000190927708   -0.0800
      8 C8        -10.6978   -0.0500   61.5724 C.2     1  ZINC000190927708   -0.1700
      9 C9        -11.3398   -0.5688   60.4965 C.2     1  ZINC000190927708    0.0000
     10 C10       -10.6616   -1.5985   59.7070 C.ar    1  ZINC000190927708   -0.1300
     11 C11       -11.2723   -2.1701   58.5863 C.ar    1  ZINC000190927708   -0.0500
     12 C12       -10.6121   -3.1283   57.8701 C.ar    1  ZINC000190927708   -0.1500
     13 C13        -9.3407   -3.5395   58.2449 C.ar    1  ZINC000190927708   -0.0600
     14 C14        -8.7196   -2.9903   59.3461 C.ar    1  ZINC000190927708   -0.1600
     15 C15        -9.3718   -2.0131   60.0902 C.ar    1  ZINC000190927708    0.1900
     16 N16        -8.7742   -1.4463   61.1958 N.am    1  ZINC000190927708   -0.6300
     17 C17        -9.4025   -0.4967   61.9109 C.2     1  ZINC000190927708    0.5500
     18 O18        -8.8440   -0.0177   62.8827 O.2     1  ZINC000190927708   -0.5300
     19 C19        -9.7485    2.9182   61.0735 C.3     1  ZINC000190927708    0.1500
     20 H20        -9.4748    2.0177   61.6234 H       1  ZINC000190927708    0.1400
     21 C21        -9.3196    4.1522   61.8698 C.3     1  ZINC000190927708   -0.1300
     22 C22        -9.5977    3.9220   63.3565 C.3     1  ZINC000190927708   -0.1500
     23 C23        -9.0569    2.9188   59.7346 C.2     1  ZINC000190927708    0.4500
     24 O24        -9.1266    1.9484   59.0182 O.2     1  ZINC000190927708   -0.5000
     25 O25        -8.3637    3.9975   59.3378 O.3     1  ZINC000190927708   -0.3500
     26 C26        -7.7971    3.9621   58.0014 C.3     1  ZINC000190927708    0.0600
     27 C27        -8.9114    4.1490   56.9699 C.3     1  ZINC000190927708   -0.1500
     28 H28       -13.0101    5.1144   57.8451 H       1  ZINC000190927708    0.0600
     29 H29       -13.7420    3.6422   57.1629 H       1  ZINC000190927708    0.0600
     30 H30       -14.2258    4.2099   58.7790 H       1  ZINC000190927708    0.0600
     31 H31       -12.6702    2.2857   58.9405 H       1  ZINC000190927708    0.0800
     32 H32       -11.4545    3.1901   58.0065 H       1  ZINC000190927708    0.0700
     33 H33       -11.0541    4.7088   59.7463 H       1  ZINC000190927708    0.0900
     34 H34       -12.6419    4.4216   60.4976 H       1  ZINC000190927708    0.0900
     35 H35       -10.6285    1.4870   63.0513 H       1  ZINC000190927708    0.1100
     36 H36       -12.1452    0.5559   63.0189 H       1  ZINC000190927708    0.1200
     37 H37       -12.3295   -0.2300   60.2281 H       1  ZINC000190927708    0.1400
     38 H38       -12.2616   -1.8556   58.2883 H       1  ZINC000190927708    0.1400
     39 H39       -11.0842   -3.5698   57.0048 H       1  ZINC000190927708    0.1300
     40 H40        -8.8326   -4.2981   57.6678 H       1  ZINC000190927708    0.1300
     41 H41        -7.7300   -3.3171   59.6296 H       1  ZINC000190927708    0.1300
     42 H42        -7.8860   -1.7337   61.4591 H       1  ZINC000190927708    0.4200
     43 H43        -8.2539    4.3274   61.7223 H       1  ZINC000190927708    0.0900
     44 H44        -9.8815    5.0203   61.5252 H       1  ZINC000190927708    0.0800
     45 H45        -9.2922    4.8011   63.9238 H       1  ZINC000190927708    0.0600
     46 H46       -10.6634    3.7468   63.5039 H       1  ZINC000190927708    0.0600
     47 H47        -9.0358    3.0538   63.7010 H       1  ZINC000190927708    0.0600
     48 H48        -7.0658    4.7635   57.8954 H       1  ZINC000190927708    0.0700
     49 H49        -7.3090    3.0011   57.8390 H       1  ZINC000190927708    0.0700
     50 H50        -9.6427    3.3476   57.0757 H       1  ZINC000190927708    0.0700
     51 H51        -9.3996    5.1099   57.1322 H       1  ZINC000190927708    0.0700
     52 H52        -8.4860    4.1223   55.9666 H       1  ZINC000190927708    0.0800
@<TRIPOS>BOND
     1     1     2    1
     2     1    28    1
     3     1    29    1
     4     1    30    1
     5     2     3    1
     6     2    31    1
     7     2    32    1
     8     3     4    1
     9     3    33    1
    10     3    34    1
    11     4     5   am
    12     4    19    1
    13     5     6    2
    14     5     7    1
    15     7     8    1
    16     7    35    1
    17     7    36    1
    18     8    17    1
    19     8     9    2
    20     9    10    1
    21     9    37    1
    22    10    15   ar
    23    10    11   ar
    24    11    12   ar
    25    11    38    1
    26    12    13   ar
    27    12    39    1
    28    13    14   ar
    29    13    40    1
    30    14    15   ar
    31    14    41    1
    32    15    16    1
    33    16    17   am
    34    16    42    1
    35    17    18    2
    36    19    20    1
    37    19    21    1
    38    19    23    1
    39    21    22    1
    40    21    43    1
    41    21    44    1
    42    22    45    1
    43    22    46    1
    44    22    47    1
    45    23    24    2
    46    23    25    1
    47    25    26    1
    48    26    27    1
    49    26    48    1
    50    26    49    1
    51    27    50    1
    52    27    51    1
    53    27    52    1
@<TRIPOS>SUBSTRUCTURE
     1 ZINC000190927708        1 TEMP              0 ****  ****    0 ROOT


##########                                Name:    ZINC000854704989
##########                DOCK_Rotatable_Bonds:                   5
##########                         Heavy_Atoms:                  22
##########                    Molecular_Weight:             365.227
##########                DOCK_Rotatable_Bonds:                   5
##########                       Formal_Charge:        -1.78814e-07
##########                     HBond_Acceptors:                   5
##########                        HBond_Donors:                   1
##########                         Heavy_Atoms:                  22
##########                          Grid_Score:          -28.126165
##########                     Grid_vdw_energy:          -27.016733
##########                      Grid_es_energy:           -1.109432
##########           Internal_energy_repulsive:           11.241374

@<TRIPOS>MOLECULE
ZINC000854704989
 39 41 1 0 0
SMALL
USER_CHARGES


@<TRIPOS>ATOM
      1 O1        -10.3293   -0.0364   60.6098 O.2     1  ZINC000854704989   -0.5300
      2 C2         -9.5449   -0.6805   61.2787 C.2     1  ZINC000854704989    0.5700
      3 N3         -8.9788   -1.7922   60.7688 N.am    1  ZINC000854704989   -0.7300
      4 C4         -9.3134   -2.2279   59.4107 C.3     1  ZINC000854704989    0.2000
      5 C5        -10.8029   -2.4287   59.3003 C.2     1  ZINC000854704989   -0.0500
      6 C6        -11.5171   -2.5862   58.1606 C.2     1  ZINC000854704989   -0.1700
      7 C7        -12.8502   -2.7351   58.6105 C.2     1  ZINC000854704989    0.0000
      8 Br8       -14.3856   -2.9966   57.5381 Br      1  ZINC000854704989    0.0600
      9 N9        -12.8099   -2.6566   59.9101 N.2     1  ZINC000854704989   -0.3200
     10 O10       -11.6810   -2.4925   60.3111 O.3     1  ZINC000854704989    0.1300
     11 C11        -9.2071   -0.2409   62.6493 C.ar    1  ZINC000854704989   -0.1300
     12 C12        -8.5981   -1.1267   63.5393 C.ar    1  ZINC000854704989   -0.0900
     13 C13        -8.2850   -0.7100   64.8168 C.ar    1  ZINC000854704989   -0.1200
     14 C14        -8.5740    0.5825   65.2163 C.ar    1  ZINC000854704989   -0.0900
     15 C15        -9.1779    1.4658   64.3387 C.ar    1  ZINC000854704989   -0.0800
     16 C16        -9.4890    2.8720   64.7826 C.3     1  ZINC000854704989   -0.0800
     17 H17        -9.2892    2.9696   65.8497 H       1  ZINC000854704989    0.0900
     18 C18       -10.9638    3.1813   64.5076 C.3     1  ZINC000854704989   -0.1100
     19 C19       -11.2488    4.6368   64.8903 C.3     1  ZINC000854704989   -0.1600
     20 C20       -10.3067    5.5558   64.1082 C.3     1  ZINC000854704989    0.0600
     21 O21        -8.9522    5.1946   64.3856 O.3     1  ZINC000854704989   -0.3800
     22 C22        -8.6137    3.8591   64.0058 C.3     1  ZINC000854704989    0.0700
     23 C23        -9.4908    1.0636   63.0570 C.ar    1  ZINC000854704989   -0.0500
     24 H24        -8.3498   -2.3040   61.3011 H       1  ZINC000854704989    0.4000
     25 H25        -8.9953   -1.4682   58.6967 H       1  ZINC000854704989    0.1100
     26 H26        -8.8032   -3.1664   59.1942 H       1  ZINC000854704989    0.1000
     27 H27       -11.1535   -2.5957   57.1437 H       1  ZINC000854704989    0.1900
     28 H28        -8.3726   -2.1362   63.2287 H       1  ZINC000854704989    0.1200
     29 H29        -7.8136   -1.3945   65.5064 H       1  ZINC000854704989    0.1300
     30 H30        -8.3276    0.9036   66.2176 H       1  ZINC000854704989    0.1300
     31 H31       -11.1757    3.0345   63.4484 H       1  ZINC000854704989    0.0700
     32 H32       -11.5925    2.5182   65.1018 H       1  ZINC000854704989    0.0700
     33 H33       -12.2824    4.8819   64.6462 H       1  ZINC000854704989    0.0800
     34 H34       -11.0843    4.7712   65.9594 H       1  ZINC000854704989    0.0700
     35 H35       -10.4998    5.4506   63.0406 H       1  ZINC000854704989    0.0500
     36 H36       -10.4759    6.5900   64.4082 H       1  ZINC000854704989    0.1000
     37 H37        -7.5640    3.6720   64.2317 H       1  ZINC000854704989    0.1000
     38 H38        -8.7843    3.7307   62.9370 H       1  ZINC000854704989    0.0500
     39 H39        -9.9617    1.7541   62.3729 H       1  ZINC000854704989    0.1400
@<TRIPOS>BOND
     1     1     2    2
     2     2     3   am
     3     2    11    1
     4     3     4    1
     5     3    24    1
     6     4     5    1
     7     4    25    1
     8     4    26    1
     9     5    10    1
    10     5     6    2
    11     6     7    1
    12     6    27    1
    13     7     8    1
    14     7     9    2
    15     9    10    1
    16    11    23   ar
    17    11    12   ar
    18    12    13   ar
    19    12    28    1
    20    13    14   ar
    21    13    29    1
    22    14    15   ar
    23    14    30    1
    24    15    16    1
    25    15    23   ar
    26    16    17    1
    27    16    22    1
    28    16    18    1
    29    18    19    1
    30    18    31    1
    31    18    32    1
    32    19    20    1
    33    19    33    1
    34    19    34    1
    35    20    21    1
    36    20    35    1
    37    20    36    1
    38    21    22    1
    39    22    37    1
    40    22    38    1
    41    23    39    1
@<TRIPOS>SUBSTRUCTURE
     1 ZINC000854704989        1 TEMP              0 ****  ****    0 ROOT


##########                                Name:    ZINC001002468398
##########                DOCK_Rotatable_Bonds:                   7
##########                         Heavy_Atoms:                  24
##########                    Molecular_Weight:             341.358
##########                DOCK_Rotatable_Bonds:                   7
##########                       Formal_Charge:           0.0100001
##########                     HBond_Acceptors:                   8
##########                        HBond_Donors:                   0
##########                         Heavy_Atoms:                  24
##########                          Grid_Score:          -28.113466
##########                     Grid_vdw_energy:          -28.041634
##########                      Grid_es_energy:           -0.071832
##########           Internal_energy_repulsive:           23.590874

@<TRIPOS>MOLECULE
ZINC001002468398
 45 47 1 0 0
SMALL
USER_CHARGES


@<TRIPOS>ATOM
      1 C1         -8.6669    0.5024   64.9393 C.3     1  ZINC001002468398   -0.1400
      2 C2         -8.8855    1.7117   64.0280 C.3     1  ZINC001002468398   -0.0500
      3 C3        -10.3575    2.0265   63.9553 C.2     1  ZINC001002468398    0.0500
      4 C4        -11.1834    1.7977   62.8982 C.2     1  ZINC001002468398   -0.0800
      5 C5        -10.8067    1.1947   61.6069 C.2     1  ZINC001002468398    0.6000
      6 O6         -9.7560    1.5006   61.0764 O.2     1  ZINC001002468398   -0.5300
      7 N7        -11.6267    0.3043   61.0141 N.am    1  ZINC001002468398   -0.6000
      8 C8        -12.8924   -0.0641   61.6531 C.3     1  ZINC001002468398    0.0900
      9 C9        -11.2523   -0.2949   59.7308 C.3     1  ZINC001002468398    0.1000
     10 C10       -11.1175   -1.8100   59.8955 C.3     1  ZINC001002468398    0.1300
     11 H11       -11.6353   -2.1321   60.7990 H       1  ZINC001002468398    0.0800
     12 C12        -9.6263   -2.1985   59.9783 C.3     1  ZINC001002468398   -0.1300
     13 C13        -9.5677   -3.5253   59.1761 C.3     1  ZINC001002468398   -0.1300
     14 C14       -10.6110   -3.2614   58.0619 C.3     1  ZINC001002468398    0.1000
     15 N15       -11.6853   -2.4929   58.7238 N.am    1  ZINC001002468398   -0.6100
     16 C16       -12.9691   -2.4284   58.3185 C.2     1  ZINC001002468398    0.5600
     17 O17       -13.7690   -1.7629   58.9417 O.2     1  ZINC001002468398   -0.5100
     18 C18       -13.4106   -3.1830   57.0910 C.3     1  ZINC001002468398   -0.2000
     19 H19       -12.6195   -3.4373   56.3857 H       1  ZINC001002468398    0.1500
     20 C20       -14.7897   -2.8528   56.5167 C.3     1  ZINC001002468398   -0.1500
     21 C21       -14.5624   -4.1776   57.2493 C.3     1  ZINC001002468398    0.2300
     22 F22       -14.5199   -5.3435   56.4774 F       1  ZINC001002468398   -0.1500
     23 F23       -15.1255   -4.3165   58.5224 F       1  ZINC001002468398   -0.1400
     24 N24       -12.4226    2.2299   63.2578 N.2     1  ZINC001002468398   -0.4600
     25 C25       -12.3603    2.6979   64.4682 C.2     1  ZINC001002468398    0.1700
     26 O26       -11.1049    2.5805   64.9233 O.3     1  ZINC001002468398   -0.2000
     27 H27        -9.0399    0.7282   65.9384 H       1  ZINC001002468398    0.0600
     28 H28        -9.2029   -0.3573   64.5371 H       1  ZINC001002468398    0.0600
     29 H29        -7.6022    0.2748   64.9919 H       1  ZINC001002468398    0.0700
     30 H30        -8.3495    2.5714   64.4302 H       1  ZINC001002468398    0.1200
     31 H31        -8.5126    1.4860   63.0290 H       1  ZINC001002468398    0.0900
     32 H32       -13.5346    0.8141   61.7204 H       1  ZINC001002468398    0.0700
     33 H33       -13.3886   -0.8325   61.0601 H       1  ZINC001002468398    0.0700
     34 H34       -12.6959   -0.4482   62.6540 H       1  ZINC001002468398    0.0700
     35 H35       -12.0214   -0.0770   58.9898 H       1  ZINC001002468398    0.0900
     36 H36       -10.3005    0.1206   59.3996 H       1  ZINC001002468398    0.0900
     37 H37        -9.0028   -1.4369   59.5099 H       1  ZINC001002468398    0.1000
     38 H38        -9.3269   -2.3603   61.0138 H       1  ZINC001002468398    0.0800
     39 H39        -8.5756   -3.6826   58.7531 H       1  ZINC001002468398    0.0900
     40 H40        -9.8645   -4.3707   59.7970 H       1  ZINC001002468398    0.0800
     41 H41       -10.1662   -2.6774   57.2562 H       1  ZINC001002468398    0.0800
     42 H42       -11.0020   -4.2035   57.6775 H       1  ZINC001002468398    0.0800
     43 H43       -15.3778   -2.0898   57.0267 H       1  ZINC001002468398    0.1300
     44 H44       -14.9061   -2.8903   55.4336 H       1  ZINC001002468398    0.1400
     45 H45       -13.1900    3.1120   65.0219 H       1  ZINC001002468398    0.2600
@<TRIPOS>BOND
     1     1     2    1
     2     1    27    1
     3     1    28    1
     4     1    29    1
     5     2     3    1
     6     2    30    1
     7     2    31    1
     8     3    26    1
     9     3     4    2
    10     4     5    1
    11     4    24    1
    12     5     6    2
    13     5     7   am
    14     7     8    1
    15     7     9    1
    16     8    32    1
    17     8    33    1
    18     8    34    1
    19     9    10    1
    20     9    35    1
    21     9    36    1
    22    10    11    1
    23    10    15    1
    24    10    12    1
    25    12    13    1
    26    12    37    1
    27    12    38    1
    28    13    14    1
    29    13    39    1
    30    13    40    1
    31    14    15    1
    32    14    41    1
    33    14    42    1
    34    15    16   am
    35    16    17    2
    36    16    18    1
    37    18    19    1
    38    18    21    1
    39    18    20    1
    40    20    21    1
    41    20    43    1
    42    20    44    1
    43    21    22    1
    44    21    23    1
    45    24    25    2
    46    25    26    1
    47    25    45    1
@<TRIPOS>SUBSTRUCTURE
     1 ZINC001002468398        1 TEMP              0 ****  ****    0 ROOT


##########                                Name:    ZINC001067316277
##########                DOCK_Rotatable_Bonds:                   5
##########                         Heavy_Atoms:                  24
##########                    Molecular_Weight:             345.469
##########                DOCK_Rotatable_Bonds:                   5
##########                       Formal_Charge:          -0.0200007
##########                     HBond_Acceptors:                   7
##########                        HBond_Donors:                   2
##########                         Heavy_Atoms:                  24
##########                          Grid_Score:          -28.096674
##########                     Grid_vdw_energy:          -26.449842
##########                      Grid_es_energy:           -1.646831
##########           Internal_energy_repulsive:           10.309524

@<TRIPOS>MOLECULE
ZINC001067316277
 47 49 1 0 0
SMALL
USER_CHARGES


@<TRIPOS>ATOM
      1 C1         -7.2930   -3.3063   58.8547 C.3     1  ZINC001067316277   -0.1400
      2 S2         -8.5260   -3.8267   57.6361 S.3     1  ZINC001067316277   -0.0400
      3 C3         -9.9550   -3.0264   58.2856 C.ar    1  ZINC001067316277    0.1800
      4 C4        -11.2147   -3.2647   57.7306 C.ar    1  ZINC001067316277   -0.2400
      5 C5        -12.3066   -2.6154   58.2720 C.ar    1  ZINC001067316277    0.1900
      6 N6        -12.1296   -1.7912   59.2945 N.ar    1  ZINC001067316277   -0.5600
      7 C7        -10.9230   -1.5837   59.8015 C.ar    1  ZINC001067316277    0.5100
      8 N8        -10.7801   -0.7154   60.8696 N.3     1  ZINC001067316277   -0.4600
      9 C9         -9.4319   -0.8057   61.4445 C.3     1  ZINC001067316277    0.0700
     10 C10        -9.3554    0.0561   62.7069 C.3     1  ZINC001067316277   -0.1300
     11 C11        -9.6812    1.5085   62.3480 C.3     1  ZINC001067316277    0.1600
     12 H12        -8.9388    1.8851   61.6443 H       1  ZINC001067316277    0.0900
     13 N13        -9.6651    2.3283   63.5621 N.am    1  ZINC001067316277   -0.7200
     14 C14        -8.9112    3.4443   63.6117 C.2     1  ZINC001067316277    0.5900
     15 O15        -8.2427    3.7703   62.6484 O.2     1  ZINC001067316277   -0.5300
     16 C16        -8.8965    4.2660   64.8265 C.2     1  ZINC001067316277   -0.0600
     17 C17        -8.1818    5.4300   65.0145 C.2     1  ZINC001067316277   -0.1000
     18 C18        -8.4604    5.8785   66.3093 C.2     1  ZINC001067316277   -0.2100
     19 C19        -9.3211    5.0002   66.8772 C.2     1  ZINC001067316277    0.0300
     20 N20        -9.5983    4.0187   65.9846 N.pl3   1  ZINC001067316277   -0.5400
     21 C21       -11.0705    1.5682   61.7069 C.3     1  ZINC001067316277   -0.0700
     22 C22       -12.1187    1.0908   62.7140 C.3     1  ZINC001067316277   -0.1400
     23 C23       -11.3798    3.0079   61.2914 C.3     1  ZINC001067316277   -0.1400
     24 C24       -11.0972    0.6627   60.4736 C.3     1  ZINC001067316277    0.0800
     25 N25        -9.8512   -2.1907   59.3151 N.ar    1  ZINC001067316277   -0.5400
     26 H26        -7.2265   -2.2184   58.8624 H       1  ZINC001067316277    0.0900
     27 H27        -7.5876   -3.6592   59.8431 H       1  ZINC001067316277    0.0900
     28 H28        -6.3226   -3.7279   58.5927 H       1  ZINC001067316277    0.1000
     29 H29       -11.3320   -3.9411   56.8967 H       1  ZINC001067316277    0.1500
     30 H30       -13.2943   -2.7771   57.8662 H       1  ZINC001067316277    0.1700
     31 H31        -9.2144   -1.8430   61.6992 H       1  ZINC001067316277    0.1000
     32 H32        -8.7023   -0.4499   60.7171 H       1  ZINC001067316277    0.0500
     33 H33       -10.0752   -0.3079   63.4401 H       1  ZINC001067316277    0.0800
     34 H34        -8.3501    0.0011   63.1246 H       1  ZINC001067316277    0.0800
     35 H35       -10.1971    2.0677   64.3303 H       1  ZINC001067316277    0.3900
     36 H36        -7.5296    5.9056   64.2970 H       1  ZINC001067316277    0.1500
     37 H37        -8.0600    6.7673   66.7743 H       1  ZINC001067316277    0.1500
     38 H38        -9.7238    5.0724   67.8767 H       1  ZINC001067316277    0.1700
     39 H39       -10.1885    3.2644   66.1383 H       1  ZINC001067316277    0.4100
     40 H40       -12.0968    1.7340   63.5938 H       1  ZINC001067316277    0.0500
     41 H41       -13.1074    1.1336   62.2572 H       1  ZINC001067316277    0.0600
     42 H42       -11.8986    0.0648   63.0086 H       1  ZINC001067316277    0.0700
     43 H43       -10.6335    3.3470   60.5729 H       1  ZINC001067316277    0.0600
     44 H44       -12.3688    3.0498   60.8352 H       1  ZINC001067316277    0.0600
     45 H45       -11.3574    3.6525   62.1702 H       1  ZINC001067316277    0.0600
     46 H46       -10.3598    1.0116   59.7507 H       1  ZINC001067316277    0.0600
     47 H47       -12.0893    0.6919   60.0230 H       1  ZINC001067316277    0.1000
@<TRIPOS>BOND
     1     1     2    1
     2     1    26    1
     3     1    27    1
     4     1    28    1
     5     2     3    1
     6     3    25   ar
     7     3     4   ar
     8     4     5   ar
     9     4    29    1
    10     5     6   ar
    11     5    30    1
    12     6     7   ar
    13     7     8    1
    14     7    25   ar
    15     8    24    1
    16     8     9    1
    17     9    10    1
    18     9    31    1
    19     9    32    1
    20    10    11    1
    21    10    33    1
    22    10    34    1
    23    11    12    1
    24    11    13    1
    25    11    21    1
    26    13    14   am
    27    13    35    1
    28    14    15    2
    29    14    16    1
    30    16    20    1
    31    16    17    2
    32    17    18    1
    33    17    36    1
    34    18    19    2
    35    18    37    1
    36    19    20    1
    37    19    38    1
    38    20    39    1
    39    21    22    1
    40    21    23    1
    41    21    24    1
    42    22    40    1
    43    22    41    1
    44    22    42    1
    45    23    43    1
    46    23    44    1
    47    23    45    1
    48    24    46    1
    49    24    47    1
@<TRIPOS>SUBSTRUCTURE
     1 ZINC001067316277        1 TEMP              0 ****  ****    0 ROOT


##########                                Name:    ZINC000880838037
##########                DOCK_Rotatable_Bonds:                   9
##########                         Heavy_Atoms:                  24
##########                    Molecular_Weight:             365.477
##########                DOCK_Rotatable_Bonds:                   9
##########                       Formal_Charge:           0.0200001
##########                     HBond_Acceptors:                   8
##########                        HBond_Donors:                   3
##########                         Heavy_Atoms:                  24
##########                          Grid_Score:          -28.080643
##########                     Grid_vdw_energy:          -25.838005
##########                      Grid_es_energy:           -2.242638
##########           Internal_energy_repulsive:            9.821004

@<TRIPOS>MOLECULE
ZINC000880838037
 43 44 1 0 0
SMALL
USER_CHARGES


@<TRIPOS>ATOM
      1 C1        -13.9959    4.6988   62.6169 C.3     1  ZINC000880838037    0.0300
      2 O2        -13.8994    3.4463   63.2982 O.3     1  ZINC000880838037   -0.3100
      3 C3        -13.9490    2.3232   62.5347 C.ar    1  ZINC000880838037    0.1400
      4 C4        -15.1247    1.9778   61.8834 C.ar    1  ZINC000880838037   -0.2200
      5 C5        -15.1766    0.8359   61.1065 C.ar    1  ZINC000880838037   -0.0700
      6 C6        -14.0591    0.0346   60.9763 C.ar    1  ZINC000880838037   -0.1500
      7 C7        -12.8795    0.3753   61.6264 C.ar    1  ZINC000880838037    0.1800
      8 N8        -11.7473   -0.4363   61.4945 N.am    1  ZINC000880838037   -0.6700
      9 C9        -10.7914   -0.1192   60.5990 C.2     1  ZINC000880838037    0.5200
     10 O10       -10.9125    0.8697   59.9074 O.2     1  ZINC000880838037   -0.4900
     11 C11        -9.5722   -0.9934   60.4570 C.3     1  ZINC000880838037   -0.0600
     12 C12        -9.8253   -2.0413   59.4039 C.2     1  ZINC000880838037    0.1000
     13 C13        -8.8686   -2.8510   58.9487 C.2     1  ZINC000880838037   -0.2600
     14 S14        -9.5814   -3.9142   57.7383 S.3     1  ZINC000880838037    0.1300
     15 C15       -11.1023   -3.1656   57.9610 C.2     1  ZINC000880838037    0.0100
     16 S16       -12.5768   -3.5996   57.0994 S.3     1  ZINC000880838037    0.1000
     17 C17       -13.5976   -2.1530   57.4751 C.3     1  ZINC000880838037   -0.1500
     18 H18       -13.3854   -1.8117   58.4883 H       1  ZINC000880838037    0.1200
     19 C19       -15.0764   -2.5291   57.3628 C.3     1  ZINC000880838037   -0.1500
     20 C20       -13.2844   -1.0496   56.4975 C.2     1  ZINC000880838037    0.5400
     21 N21       -12.9744   -1.3487   55.2204 N.am    1  ZINC000880838037   -0.8400
     22 O22       -13.3113    0.1074   56.8600 O.2     1  ZINC000880838037   -0.5200
     23 N23       -11.0139   -2.2354   58.8613 N.2     1  ZINC000880838037   -0.4200
     24 C24       -12.8236    1.5249   62.4014 C.ar    1  ZINC000880838037   -0.1500
     25 C25       -11.5457    1.8976   63.1081 C.3     1  ZINC000880838037   -0.1000
     26 H26       -14.9446    4.7495   62.0826 H       1  ZINC000880838037    0.0600
     27 H27       -13.9430    5.5115   63.3415 H       1  ZINC000880838037    0.1000
     28 H28       -13.1738    4.7907   61.9073 H       1  ZINC000880838037    0.0600
     29 H29       -16.0003    2.6020   61.9840 H       1  ZINC000880838037    0.1300
     30 H30       -16.0928    0.5693   60.6007 H       1  ZINC000880838037    0.1300
     31 H31       -14.1024   -0.8574   60.3690 H       1  ZINC000880838037    0.1400
     32 H32       -11.6506   -1.2273   62.0477 H       1  ZINC000880838037    0.4100
     33 H33        -8.7189   -0.3820   60.1634 H       1  ZINC000880838037    0.1200
     34 H34        -9.3605   -1.4792   61.4094 H       1  ZINC000880838037    0.1200
     35 H35        -7.8364   -2.8542   59.2664 H       1  ZINC000880838037    0.1800
     36 H36       -15.2887   -2.8703   56.3496 H       1  ZINC000880838037    0.0900
     37 H37       -15.3030   -3.3272   58.0699 H       1  ZINC000880838037    0.0800
     38 H38       -15.6911   -1.6579   57.5891 H       1  ZINC000880838037    0.0800
     39 H39       -12.7740   -0.6385   54.5909 H       1  ZINC000880838037    0.4000
     40 H40       -12.9518   -2.2742   54.9309 H       1  ZINC000880838037    0.4100
     41 H41       -10.9404    2.5273   62.4561 H       1  ZINC000880838037    0.0700
     42 H42       -11.7816    2.4421   64.0224 H       1  ZINC000880838037    0.0700
     43 H43       -10.9910    0.9929   63.3569 H       1  ZINC000880838037    0.0600
@<TRIPOS>BOND
     1     1     2    1
     2     1    26    1
     3     1    27    1
     4     1    28    1
     5     2     3    1
     6     3    24   ar
     7     3     4   ar
     8     4     5   ar
     9     4    29    1
    10     5     6   ar
    11     5    30    1
    12     6     7   ar
    13     6    31    1
    14     7     8    1
    15     7    24   ar
    16     8     9   am
    17     8    32    1
    18     9    10    2
    19     9    11    1
    20    11    12    1
    21    11    33    1
    22    11    34    1
    23    12    23    1
    24    12    13    2
    25    13    14    1
    26    13    35    1
    27    14    15    1
    28    15    16    1
    29    15    23    2
    30    16    17    1
    31    17    18    1
    32    17    19    1
    33    17    20    1
    34    19    36    1
    35    19    37    1
    36    19    38    1
    37    20    21   am
    38    20    22    2
    39    21    39    1
    40    21    40    1
    41    24    25    1
    42    25    41    1
    43    25    42    1
    44    25    43    1
@<TRIPOS>SUBSTRUCTURE
     1 ZINC000880838037        1 TEMP              0 ****  ****    0 ROOT


##########                                Name:    ZINC000455156110
##########                DOCK_Rotatable_Bonds:                   4
##########                         Heavy_Atoms:                  27
##########                    Molecular_Weight:             370.424
##########                DOCK_Rotatable_Bonds:                   4
##########                       Formal_Charge:           0.0100002
##########                     HBond_Acceptors:                   6
##########                        HBond_Donors:                   1
##########                         Heavy_Atoms:                  27
##########                          Grid_Score:          -28.070921
##########                     Grid_vdw_energy:          -25.039717
##########                      Grid_es_energy:           -3.031204
##########           Internal_energy_repulsive:          183.116928

@<TRIPOS>MOLECULE
ZINC000455156110
 50 53 1 0 0
SMALL
USER_CHARGES


@<TRIPOS>ATOM
      1 C1        -10.4340    4.2336   67.1696 C.3     1  ZINC000455156110    0.0300
      2 O2        -11.7020    3.9813   66.5609 O.3     1  ZINC000455156110   -0.3100
      3 C3        -11.7255    3.0994   65.5254 C.ar    1  ZINC000455156110    0.0900
      4 C4        -10.5536    2.4867   65.1105 C.ar    1  ZINC000455156110   -0.1600
      5 C5        -10.5765    1.5906   64.0589 C.ar    1  ZINC000455156110   -0.0800
      6 C6         -9.3014    0.9255   63.6083 C.3     1  ZINC000455156110   -0.1100
      7 C7        -11.7732    1.3027   63.4176 C.ar    1  ZINC000455156110    0.1500
      8 N8        -11.7961    0.3931   62.3517 N.am    1  ZINC000455156110   -0.6700
      9 C9        -12.9583    0.1136   61.7293 C.2     1  ZINC000455156110    0.7200
     10 O10       -13.9871    0.6505   62.0925 O.2     1  ZINC000455156110   -0.5500
     11 N11       -12.9803   -0.7612   60.7041 N.am    1  ZINC000455156110   -0.5600
     12 C12       -14.1778   -1.1399   59.9471 C.3     1  ZINC000455156110    0.1000
     13 C13       -13.6849   -2.1475   58.9015 C.3     1  ZINC000455156110   -0.0200
     14 C14       -14.3752   -3.4952   59.0982 C.3     1  ZINC000455156110   -0.1400
     15 C15       -15.8698   -3.3432   58.7984 C.3     1  ZINC000455156110    0.0600
     16 O16       -16.0382   -2.8375   57.4724 O.3     1  ZINC000455156110   -0.3800
     17 C17       -15.4623   -1.5468   57.2601 C.3     1  ZINC000455156110    0.0600
     18 C18       -13.9501   -1.6210   57.4929 C.3     1  ZINC000455156110   -0.1400
     19 C19       -12.2023   -2.2724   59.1477 C.ar    1  ZINC000455156110   -0.1300
     20 C20       -11.2348   -3.0319   58.5187 C.ar    1  ZINC000455156110   -0.0700
     21 C21        -9.9190   -2.9687   58.9388 C.ar    1  ZINC000455156110   -0.1400
     22 C22        -9.5719   -2.1426   59.9917 C.ar    1  ZINC000455156110   -0.0900
     23 C23       -10.5337   -1.3832   60.6235 C.ar    1  ZINC000455156110   -0.1300
     24 C24       -11.8630   -1.4368   60.2019 C.ar    1  ZINC000455156110    0.1600
     25 C25       -12.9481    1.9155   63.8329 C.ar    1  ZINC000455156110   -0.1200
     26 C26       -12.9253    2.8085   64.8878 C.ar    1  ZINC000455156110    0.0900
     27 F27       -14.0678    3.4051   65.2930 F       1  ZINC000455156110   -0.1300
     28 H28       -10.5563    4.9530   67.9792 H       1  ZINC000455156110    0.1000
     29 H29       -10.0309    3.3027   67.5685 H       1  ZINC000455156110    0.0600
     30 H30        -9.7476    4.6373   66.4253 H       1  ZINC000455156110    0.0600
     31 H31        -9.6220    2.7100   65.6092 H       1  ZINC000455156110    0.1400
     32 H32        -9.1625   -0.0047   64.1592 H       1  ZINC000455156110    0.0800
     33 H33        -9.3612    0.7104   62.5413 H       1  ZINC000455156110    0.0600
     34 H34        -8.4583    1.5897   63.7983 H       1  ZINC000455156110    0.0800
     35 H35       -10.9755   -0.0351   62.0620 H       1  ZINC000455156110    0.4100
     36 H36       -14.9108   -1.6057   60.6059 H       1  ZINC000455156110    0.0800
     37 H37       -14.6085   -0.2664   59.4577 H       1  ZINC000455156110    0.0900
     38 H38       -13.9406   -4.2295   58.4201 H       1  ZINC000455156110    0.0800
     39 H39       -14.2421   -3.8257   60.1283 H       1  ZINC000455156110    0.0800
     40 H40       -16.3580   -4.3141   58.8820 H       1  ZINC000455156110    0.1000
     41 H41       -16.3149   -2.6493   59.5115 H       1  ZINC000455156110    0.0500
     42 H42       -15.6575   -1.2253   56.2371 H       1  ZINC000455156110    0.1000
     43 H43       -15.9029   -0.8331   57.9563 H       1  ZINC000455156110    0.0500
     44 H44       -13.5162   -0.6265   57.3881 H       1  ZINC000455156110    0.0800
     45 H45       -13.5016   -2.2939   56.7621 H       1  ZINC000455156110    0.0800
     46 H46       -11.5070   -3.6772   57.6967 H       1  ZINC000455156110    0.1300
     47 H47        -9.1644   -3.5635   58.4458 H       1  ZINC000455156110    0.1300
     48 H48        -8.5443   -2.0923   60.3205 H       1  ZINC000455156110    0.1300
     49 H49       -10.2563   -0.7403   61.4457 H       1  ZINC000455156110    0.1400
     50 H50       -13.8796    1.6919   63.3344 H       1  ZINC000455156110    0.1700
@<TRIPOS>BOND
     1     1     2    1
     2     1    28    1
     3     1    29    1
     4     1    30    1
     5     2     3    1
     6     3    26   ar
     7     3     4   ar
     8     4     5   ar
     9     4    31    1
    10     5     6    1
    11     5     7   ar
    12     6    32    1
    13     6    33    1
    14     6    34    1
    15     7     8    1
    16     7    25   ar
    17     8     9   am
    18     8    35    1
    19     9    10    2
    20     9    11   am
    21    11    24    1
    22    11    12    1
    23    12    13    1
    24    12    36    1
    25    12    37    1
    26    13    18    1
    27    13    14    1
    28    13    19    1
    29    14    15    1
    30    14    38    1
    31    14    39    1
    32    15    16    1
    33    15    40    1
    34    15    41    1
    35    16    17    1
    36    17    18    1
    37    17    42    1
    38    17    43    1
    39    18    44    1
    40    18    45    1
    41    19    24   ar
    42    19    20   ar
    43    20    21   ar
    44    20    46    1
    45    21    22   ar
    46    21    47    1
    47    22    23   ar
    48    22    48    1
    49    23    24   ar
    50    23    49    1
    51    25    26   ar
    52    25    50    1
    53    26    27    1
@<TRIPOS>SUBSTRUCTURE
     1 ZINC000455156110        1 TEMP              0 ****  ****    0 ROOT


##########                                Name:    ZINC000546115054
##########                DOCK_Rotatable_Bonds:                  10
##########                         Heavy_Atoms:                  26
##########                    Molecular_Weight:             363.457
##########                DOCK_Rotatable_Bonds:                  10
##########                       Formal_Charge:        -4.39584e-07
##########                     HBond_Acceptors:                   7
##########                        HBond_Donors:                   2
##########                         Heavy_Atoms:                  26
##########                          Grid_Score:          -28.067360
##########                     Grid_vdw_energy:          -29.073133
##########                      Grid_es_energy:            1.005774
##########           Internal_energy_repulsive:           30.737621

@<TRIPOS>MOLECULE
ZINC000546115054
 55 56 1 0 0
SMALL
USER_CHARGES


@<TRIPOS>ATOM
      1 C1        -13.6019    2.8237   61.2649 C.3     1  ZINC000546115054   -0.1500
      2 C2        -13.0247    2.7971   62.6817 C.3     1  ZINC000546115054    0.0600
      3 O3        -11.5973    2.8141   62.6148 O.3     1  ZINC000546115054   -0.3700
      4 C4        -10.9539    2.4301   63.8316 C.3     1  ZINC000546115054    0.0500
      5 H5        -11.6788    1.9550   64.4927 H       1  ZINC000546115054    0.0700
      6 C6        -10.3727    3.6698   64.5164 C.3     1  ZINC000546115054    0.0400
      7 O7         -9.6802    3.2764   65.7029 O.3     1  ZINC000546115054   -0.3700
      8 C8         -8.5795    2.3950   65.4709 C.3     1  ZINC000546115054    0.0600
      9 C9         -9.0886    1.1042   64.8244 C.3     1  ZINC000546115054   -0.1600
     10 C10        -9.8208    1.4467   63.5232 C.3     1  ZINC000546115054    0.1700
     11 H11        -9.1232    1.9046   62.8219 H       1  ZINC000546115054    0.1000
     12 N12       -10.3743    0.2240   62.9359 N.am    1  ZINC000546115054   -0.7300
     13 C13       -10.4283    0.0844   61.5965 C.2     1  ZINC000546115054    0.7200
     14 O14       -10.0189    0.9737   60.8756 O.2     1  ZINC000546115054   -0.5900
     15 N15       -10.9361   -1.0412   61.0562 N.am    1  ZINC000546115054   -0.7200
     16 C16       -10.9963   -1.1922   59.6002 C.3     1  ZINC000546115054    0.1600
     17 H17       -10.1052   -0.7525   59.1522 H       1  ZINC000546115054    0.1200
     18 C18       -11.0658   -2.6786   59.2441 C.3     1  ZINC000546115054   -0.1000
     19 C19        -9.7799   -3.0964   58.5789 C.ar    1  ZINC000546115054   -0.0800
     20 C20        -9.7955   -3.5697   57.2801 C.ar    1  ZINC000546115054   -0.1100
     21 C21        -8.6159   -3.9529   56.6699 C.ar    1  ZINC000546115054   -0.1200
     22 C22        -7.4205   -3.8627   57.3582 C.ar    1  ZINC000546115054   -0.1200
     23 C23        -7.4047   -3.3886   58.6566 C.ar    1  ZINC000546115054   -0.1200
     24 C24        -8.5837   -3.0011   59.2654 C.ar    1  ZINC000546115054   -0.1100
     25 C25       -12.2218   -0.4914   59.0728 C.2     1  ZINC000546115054    0.5000
     26 O26       -12.1284    0.2670   58.1310 O.2     1  ZINC000546115054   -0.5200
     27 N27       -13.4215   -0.7077   59.6476 N.am    1  ZINC000546115054   -0.6200
     28 C28       -13.5346   -1.6253   60.7839 C.3     1  ZINC000546115054    0.0800
     29 C29       -14.6125   -0.0251   59.1359 C.3     1  ZINC000546115054    0.0700
     30 H30       -14.6907    2.8106   61.3158 H       1  ZINC000546115054    0.0700
     31 H31       -13.2728    3.7293   60.7555 H       1  ZINC000546115054    0.0600
     32 H32       -13.2535    1.9499   60.7142 H       1  ZINC000546115054    0.0600
     33 H33       -13.3732    3.6709   63.2324 H       1  ZINC000546115054    0.0500
     34 H34       -13.3539    1.8914   63.1911 H       1  ZINC000546115054    0.0500
     35 H35        -9.6792    4.1678   63.8389 H       1  ZINC000546115054    0.0600
     36 H36       -11.1807    4.3536   64.7770 H       1  ZINC000546115054    0.1000
     37 H37        -7.8624    2.8764   64.8058 H       1  ZINC000546115054    0.0600
     38 H38        -8.0955    2.1605   66.4189 H       1  ZINC000546115054    0.1000
     39 H39        -8.2454    0.4488   64.6063 H       1  ZINC000546115054    0.0900
     40 H40        -9.7749    0.6016   65.5060 H       1  ZINC000546115054    0.0800
     41 H41       -10.7021   -0.4850   63.5110 H       1  ZINC000546115054    0.3900
     42 H42       -11.2616   -1.7512   61.6313 H       1  ZINC000546115054    0.4000
     43 H43       -11.2117   -3.2632   60.1524 H       1  ZINC000546115054    0.0900
     44 H44       -11.8996   -2.8505   58.5635 H       1  ZINC000546115054    0.1100
     45 H45       -10.7294   -3.6402   56.7424 H       1  ZINC000546115054    0.1200
     46 H46        -8.6282   -4.3234   55.6555 H       1  ZINC000546115054    0.1200
     47 H47        -6.4990   -4.1628   56.8816 H       1  ZINC000546115054    0.1200
     48 H48        -6.4708   -3.3183   59.1944 H       1  ZINC000546115054    0.1200
     49 H49        -8.5714   -2.6308   60.2798 H       1  ZINC000546115054    0.1200
     50 H50       -13.3933   -1.0725   61.7127 H       1  ZINC000546115054    0.0600
     51 H51       -14.5224   -2.0861   60.7819 H       1  ZINC000546115054    0.0700
     52 H52       -12.7721   -2.3999   60.7026 H       1  ZINC000546115054    0.0800
     53 H53       -15.0772   -0.6361   58.3620 H       1  ZINC000546115054    0.0600
     54 H54       -15.3203    0.1301   59.9501 H       1  ZINC000546115054    0.0800
     55 H55       -14.3263    0.9386   58.7148 H       1  ZINC000546115054    0.0700
@<TRIPOS>BOND
     1     1     2    1
     2     1    30    1
     3     1    31    1
     4     1    32    1
     5     2     3    1
     6     2    33    1
     7     2    34    1
     8     3     4    1
     9     4     5    1
    10     4    10    1
    11     4     6    1
    12     6     7    1
    13     6    35    1
    14     6    36    1
    15     7     8    1
    16     8     9    1
    17     8    37    1
    18     8    38    1
    19     9    10    1
    20     9    39    1
    21     9    40    1
    22    10    11    1
    23    10    12    1
    24    12    13   am
    25    12    41    1
    26    13    14    2
    27    13    15   am
    28    15    16    1
    29    15    42    1
    30    16    17    1
    31    16    18    1
    32    16    25    1
    33    18    19    1
    34    18    43    1
    35    18    44    1
    36    19    24   ar
    37    19    20   ar
    38    20    21   ar
    39    20    45    1
    40    21    22   ar
    41    21    46    1
    42    22    23   ar
    43    22    47    1
    44    23    24   ar
    45    23    48    1
    46    24    49    1
    47    25    26    2
    48    25    27   am
    49    27    28    1
    50    27    29    1
    51    28    50    1
    52    28    51    1
    53    28    52    1
    54    29    53    1
    55    29    54    1
    56    29    55    1
@<TRIPOS>SUBSTRUCTURE
     1 ZINC000546115054        1 TEMP              0 ****  ****    0 ROOT


##########                                Name:    ZINC001411334959
##########                DOCK_Rotatable_Bonds:                   9
##########                         Heavy_Atoms:                  24
##########                    Molecular_Weight:              339.37
##########                DOCK_Rotatable_Bonds:                   9
##########                       Formal_Charge:           0.0199995
##########                     HBond_Acceptors:                   9
##########                        HBond_Donors:                   3
##########                         Heavy_Atoms:                  24
##########                          Grid_Score:          -28.049335
##########                     Grid_vdw_energy:          -27.186054
##########                      Grid_es_energy:           -0.863280
##########           Internal_energy_repulsive:           12.212640

@<TRIPOS>MOLECULE
ZINC001411334959
 46 48 1 0 0
SMALL
USER_CHARGES


@<TRIPOS>ATOM
      1 O1        -12.4310   -3.0674   57.7312 O.2     1  ZINC001411334959   -0.5400
      2 C2        -11.3583   -3.0213   58.2952 C.2     1  ZINC001411334959    0.5200
      3 C3        -10.1480   -3.6621   57.6661 C.3     1  ZINC001411334959   -0.1400
      4 C4         -8.9145   -3.3748   58.5246 C.3     1  ZINC001411334959   -0.0100
      5 C5         -7.6691   -3.6754   57.7310 C.2     1  ZINC001411334959    0.0100
      6 N6         -6.4278   -3.4256   58.0814 N.2     1  ZINC001411334959   -0.2800
      7 N7         -5.6454   -3.8268   57.1428 N.pl3   1  ZINC001411334959   -0.2500
      8 N8         -6.3198   -4.3373   56.1742 N.2     1  ZINC001411334959   -0.2800
      9 C9         -7.5976   -4.2821   56.4750 C.2     1  ZINC001411334959   -0.0200
     10 N10       -11.2473   -2.3921   59.4820 N.am    1  ZINC001411334959   -0.7200
     11 C11       -12.4238   -1.7692   60.0934 C.3     1  ZINC001411334959    0.1200
     12 C12       -12.0891   -0.5562   60.9776 C.3     1  ZINC001411334959   -0.1400
     13 C13       -13.3402    0.1180   60.3902 C.3     1  ZINC001411334959   -0.1200
     14 C14       -13.1500    1.6057   60.0878 C.3     1  ZINC001411334959    0.1300
     15 N15       -12.6533    2.2877   61.2855 N.am    1  ZINC001411334959   -0.7200
     16 C16       -12.9587    3.5830   61.4988 C.2     1  ZINC001411334959    0.5100
     17 O17       -13.6458    4.1835   60.7000 O.2     1  ZINC001411334959   -0.5100
     18 C18       -12.4463    4.2851   62.7298 C.3     1  ZINC001411334959    0.0700
     19 F19       -13.2607    4.0086   63.8333 F       1  ZINC001411334959   -0.1800
     20 C20       -10.9704    3.8945   63.0150 C.3     1  ZINC001411334959   -0.1600
     21 C21       -10.4684    5.1611   63.7531 C.3     1  ZINC001411334959    0.0500
     22 O22       -11.1303    6.2594   63.1059 O.3     1  ZINC001411334959   -0.3700
     23 C23       -12.3423    5.8068   62.4913 C.3     1  ZINC001411334959    0.0400
     24 C24       -13.1559   -0.7888   59.1619 C.3     1  ZINC001411334959   -0.1400
     25 H25       -10.3009   -4.7394   57.5989 H       1  ZINC001411334959    0.1000
     26 H26        -9.9984   -3.2533   56.6669 H       1  ZINC001411334959    0.1000
     27 H27        -8.9133   -2.3254   58.8191 H       1  ZINC001411334959    0.1000
     28 H28        -8.9379   -4.0021   59.4157 H       1  ZINC001411334959    0.0900
     29 H29        -4.6784   -3.7540   57.1629 H       1  ZINC001411334959    0.4700
     30 H30        -8.4236   -4.6284   55.8716 H       1  ZINC001411334959    0.2000
     31 H31       -10.3885   -2.3519   59.9311 H       1  ZINC001411334959    0.4000
     32 H32       -13.0843   -2.4916   60.5730 H       1  ZINC001411334959    0.1200
     33 H33       -12.1639   -0.7604   62.0456 H       1  ZINC001411334959    0.0800
     34 H34       -11.1574   -0.0608   60.7046 H       1  ZINC001411334959    0.0900
     35 H35       -14.2512   -0.0865   60.9527 H       1  ZINC001411334959    0.1000
     36 H36       -12.4297    1.7227   59.2781 H       1  ZINC001411334959    0.0800
     37 H37       -14.1041    2.0411   59.7910 H       1  ZINC001411334959    0.0800
     38 H38       -12.1047    1.8071   61.9250 H       1  ZINC001411334959    0.4100
     39 H39       -10.9137    3.0166   63.6584 H       1  ZINC001411334959    0.1000
     40 H40       -10.4199    3.7361   62.0877 H       1  ZINC001411334959    0.1100
     41 H41       -10.7456    5.1200   64.8064 H       1  ZINC001411334959    0.0700
     42 H42        -9.3875    5.2562   63.6489 H       1  ZINC001411334959    0.1000
     43 H43       -12.3134    6.0122   61.4212 H       1  ZINC001411334959    0.0900
     44 H44       -13.1966    6.3111   62.9429 H       1  ZINC001411334959    0.0900
     45 H45       -12.5158   -0.3570   58.3926 H       1  ZINC001411334959    0.0900
     46 H46       -14.0919   -1.1808   58.7642 H       1  ZINC001411334959    0.0800
@<TRIPOS>BOND
     1     1     2    2
     2     2     3    1
     3     2    10   am
     4     3     4    1
     5     3    25    1
     6     3    26    1
     7     4     5    1
     8     4    27    1
     9     4    28    1
    10     5     9    1
    11     5     6    2
    12     6     7    1
    13     7     8    1
    14     7    29    1
    15     8     9    2
    16     9    30    1
    17    10    11    1
    18    10    31    1
    19    11    24    1
    20    11    12    1
    21    11    32    1
    22    12    13    1
    23    12    33    1
    24    12    34    1
    25    13    14    1
    26    13    24    1
    27    13    35    1
    28    14    15    1
    29    14    36    1
    30    14    37    1
    31    15    16   am
    32    15    38    1
    33    16    17    2
    34    16    18    1
    35    18    23    1
    36    18    19    1
    37    18    20    1
    38    20    21    1
    39    20    39    1
    40    20    40    1
    41    21    22    1
    42    21    41    1
    43    21    42    1
    44    22    23    1
    45    23    43    1
    46    23    44    1
    47    24    45    1
    48    24    46    1
@<TRIPOS>SUBSTRUCTURE
     1 ZINC001411334959        1 TEMP              0 ****  ****    0 ROOT


##########                                Name:    ZINC001344051361
##########                DOCK_Rotatable_Bonds:                   8
##########                         Heavy_Atoms:                  28
##########                    Molecular_Weight:             379.456
##########                DOCK_Rotatable_Bonds:                   8
##########                       Formal_Charge:          -0.0100006
##########                     HBond_Acceptors:                   5
##########                        HBond_Donors:                   0
##########                         Heavy_Atoms:                  28
##########                          Grid_Score:          -28.003717
##########                     Grid_vdw_energy:          -28.221365
##########                      Grid_es_energy:            0.217648
##########           Internal_energy_repulsive:           21.985491

@<TRIPOS>MOLECULE
ZINC001344051361
 53 56 1 0 0
SMALL
USER_CHARGES


@<TRIPOS>ATOM
      1 O1         -9.2505   -0.4265   61.5043 O.2     1  ZINC001344051361   -0.4800
      2 C2         -9.8267    0.1620   62.3884 C.2     1  ZINC001344051361    0.4800
      3 O3        -10.9481    0.8482   62.1180 O.3     1  ZINC001344051361   -0.3500
      4 C4        -11.3913    0.8687   60.7354 C.3     1  ZINC001344051361    0.0700
      5 C5        -12.2883   -0.3420   60.4693 C.3     1  ZINC001344051361   -0.1000
      6 H6        -12.0526   -1.1329   61.1813 H       1  ZINC001344051361    0.0900
      7 C7        -13.7552    0.0652   60.6251 C.3     1  ZINC001344051361   -0.1200
      8 C8        -14.6520   -1.1527   60.3914 C.3     1  ZINC001344051361   -0.1300
      9 C9        -14.4426   -1.6697   58.9646 C.3     1  ZINC001344051361    0.0800
     10 N10       -13.0105   -1.9266   58.7601 N.am    1  ZINC001344051361   -0.6100
     11 C11       -12.5842   -3.1273   58.3206 C.2     1  ZINC001344051361    0.5600
     12 O12       -13.3873   -4.0100   58.0894 O.2     1  ZINC001344051361   -0.5300
     13 C13       -11.1398   -3.3707   58.1195 C.ar    1  ZINC001344051361   -0.1300
     14 C14       -10.6294   -3.5345   56.8309 C.ar    1  ZINC001344051361   -0.1000
     15 C15        -9.2805   -3.7609   56.6502 C.ar    1  ZINC001344051361   -0.1300
     16 C16        -8.4345   -3.8263   57.7430 C.ar    1  ZINC001344051361   -0.0900
     17 C17        -8.9341   -3.6653   59.0231 C.ar    1  ZINC001344051361   -0.1300
     18 C18       -10.2800   -3.4321   59.2172 C.ar    1  ZINC001344051361   -0.0600
     19 C19       -12.0515   -0.8502   59.0437 C.3     1  ZINC001344051361    0.1200
     20 C20        -9.2897    0.1204   63.7958 C.3     1  ZINC001344051361    0.0200
     21 O21        -9.9420    0.9828   64.7301 O.3     1  ZINC001344051361   -0.2500
     22 C22        -9.9714    2.3079   64.4301 C.ar    1  ZINC001344051361    0.1200
     23 C23       -10.9195    3.1325   65.0183 C.ar    1  ZINC001344051361   -0.2000
     24 C24       -10.9470    4.4794   64.7120 C.ar    1  ZINC001344051361   -0.0800
     25 C25       -10.0310    5.0056   63.8199 C.ar    1  ZINC001344051361   -0.1500
     26 C26        -9.0854    4.1858   63.2323 C.ar    1  ZINC001344051361   -0.0800
     27 C27        -9.0497    2.8394   63.5398 C.ar    1  ZINC001344051361   -0.1400
     28 C28        -8.7729   -1.2227   64.3153 C.3     1  ZINC001344051361   -0.1700
     29 C29        -7.7867   -0.1044   63.9722 C.3     1  ZINC001344051361   -0.1100
     30 H30       -11.9516    1.7844   60.5470 H       1  ZINC001344051361    0.0800
     31 H31       -10.5246    0.8308   60.0755 H       1  ZINC001344051361    0.0800
     32 H32       -13.9204    0.4499   61.6315 H       1  ZINC001344051361    0.0700
     33 H33       -13.9967    0.8391   59.8966 H       1  ZINC001344051361    0.0700
     34 H34       -14.3942   -1.9365   61.1037 H       1  ZINC001344051361    0.0700
     35 H35       -15.6953   -0.8674   60.5255 H       1  ZINC001344051361    0.0800
     36 H36       -15.0032   -2.5939   58.8249 H       1  ZINC001344051361    0.1100
     37 H37       -14.7851   -0.9206   58.2507 H       1  ZINC001344051361    0.0700
     38 H38       -11.2888   -3.4844   55.9771 H       1  ZINC001344051361    0.1400
     39 H39        -8.8842   -3.8878   55.6535 H       1  ZINC001344051361    0.1300
     40 H40        -7.3794   -4.0042   57.5961 H       1  ZINC001344051361    0.1300
     41 H41        -8.2684   -3.7178   59.8719 H       1  ZINC001344051361    0.1300
     42 H42       -10.6687   -3.3063   60.2170 H       1  ZINC001344051361    0.1300
     43 H43       -12.1986   -0.0340   58.3364 H       1  ZINC001344051361    0.0700
     44 H44       -11.0350   -1.2339   58.9558 H       1  ZINC001344051361    0.1000
     45 H45       -11.6357    2.7218   65.7145 H       1  ZINC001344051361    0.1300
     46 H46       -11.6849    5.1217   65.1695 H       1  ZINC001344051361    0.1300
     47 H47       -10.0544    6.0587   63.5816 H       1  ZINC001344051361    0.1300
     48 H48        -8.3712    4.5991   62.5355 H       1  ZINC001344051361    0.1300
     49 H49        -8.3109    2.1994   63.0805 H       1  ZINC001344051361    0.1300
     50 H50        -8.9303   -1.4488   65.3699 H       1  ZINC001344051361    0.1200
     51 H51        -8.8212   -2.0762   63.6390 H       1  ZINC001344051361    0.1200
     52 H52        -7.1861   -0.2222   63.0702 H       1  ZINC001344051361    0.1200
     53 H53        -7.2953    0.4052   64.8011 H       1  ZINC001344051361    0.1200
@<TRIPOS>BOND
     1     1     2    2
     2     2     3    1
     3     2    20    1
     4     3     4    1
     5     4     5    1
     6     4    30    1
     7     4    31    1
     8     5     6    1
     9     5    19    1
    10     5     7    1
    11     7     8    1
    12     7    32    1
    13     7    33    1
    14     8     9    1
    15     8    34    1
    16     8    35    1
    17     9    10    1
    18     9    36    1
    19     9    37    1
    20    10    11   am
    21    10    19    1
    22    11    12    2
    23    11    13    1
    24    13    18   ar
    25    13    14   ar
    26    14    15   ar
    27    14    38    1
    28    15    16   ar
    29    15    39    1
    30    16    17   ar
    31    16    40    1
    32    17    18   ar
    33    17    41    1
    34    18    42    1
    35    19    43    1
    36    19    44    1
    37    20    29    1
    38    20    21    1
    39    20    28    1
    40    21    22    1
    41    22    27   ar
    42    22    23   ar
    43    23    24   ar
    44    23    45    1
    45    24    25   ar
    46    24    46    1
    47    25    26   ar
    48    25    47    1
    49    26    27   ar
    50    26    48    1
    51    27    49    1
    52    28    29    1
    53    28    50    1
    54    28    51    1
    55    29    52    1
    56    29    53    1
@<TRIPOS>SUBSTRUCTURE
     1 ZINC001344051361        1 TEMP              0 ****  ****    0 ROOT


##########                                Name:    ZINC000763800048
##########                DOCK_Rotatable_Bonds:                   8
##########                         Heavy_Atoms:                  23
##########                    Molecular_Weight:             329.783
##########                DOCK_Rotatable_Bonds:                   8
##########                       Formal_Charge:           0.0199994
##########                     HBond_Acceptors:                   5
##########                        HBond_Donors:                   1
##########                         Heavy_Atoms:                  23
##########                          Grid_Score:          -27.997419
##########                     Grid_vdw_energy:          -27.005150
##########                      Grid_es_energy:           -0.992269
##########           Internal_energy_repulsive:           13.510590

@<TRIPOS>MOLECULE
ZINC000763800048
 39 40 1 0 0
SMALL
USER_CHARGES


@<TRIPOS>ATOM
      1 C1         -5.8666   -3.9205   56.4498 C.3     1  ZINC000763800048    0.0400
      2 O2         -6.7190   -4.0812   57.6142 O.3     1  ZINC000763800048   -0.3600
      3 C3         -8.0438   -3.9954   57.4162 C.2     1  ZINC000763800048    0.4600
      4 O4         -8.4756   -3.7591   56.3127 O.2     1  ZINC000763800048   -0.4900
      5 C5         -8.9925   -4.1936   58.5701 C.3     1  ZINC000763800048   -0.0700
      6 C6        -10.0529   -3.1232   58.5381 C.ar    1  ZINC000763800048   -0.0600
      7 C7        -11.0376   -3.1556   57.5679 C.ar    1  ZINC000763800048   -0.1200
      8 C8        -12.0127   -2.1753   57.5349 C.ar    1  ZINC000763800048   -0.1000
      9 C9        -12.0060   -1.1609   58.4718 C.ar    1  ZINC000763800048   -0.1100
     10 C10       -11.0184   -1.1257   59.4481 C.ar    1  ZINC000763800048    0.1500
     11 N11       -11.0088   -0.1000   60.3983 N.am    1  ZINC000763800048   -0.6700
     12 C12       -11.9723   -0.0437   61.3389 C.2     1  ZINC000763800048    0.5500
     13 O13       -12.8509   -0.8857   61.3613 O.2     1  ZINC000763800048   -0.5200
     14 C14       -11.9622    1.0299   62.3334 C.2     1  ZINC000763800048   -0.2100
     15 C15       -10.8611    1.2455   63.0817 C.2     1  ZINC000763800048   -0.0100
     16 C16       -10.8504    2.3261   64.0806 C.ar    1  ZINC000763800048   -0.0800
     17 C17        -9.7257    2.5257   64.8878 C.ar    1  ZINC000763800048   -0.0900
     18 C18        -9.7227    3.5397   65.8213 C.ar    1  ZINC000763800048   -0.1100
     19 C19       -10.8305    4.3600   65.9615 C.ar    1  ZINC000763800048   -0.0200
     20 Cl20      -10.8180    5.6343   67.1403 Cl      1  ZINC000763800048   -0.0600
     21 C21       -11.9479    4.1684   65.1651 C.ar    1  ZINC000763800048   -0.1100
     22 C22       -11.9627    3.1620   64.2234 C.ar    1  ZINC000763800048   -0.0800
     23 C23       -10.0436   -2.1143   59.4814 C.ar    1  ZINC000763800048   -0.1300
     24 H24        -4.8223   -4.0121   56.7485 H       1  ZINC000763800048    0.1000
     25 H25        -6.1036   -4.6916   55.7168 H       1  ZINC000763800048    0.0600
     26 H26        -6.0337   -2.9374   56.0100 H       1  ZINC000763800048    0.0600
     27 H27        -9.4629   -5.1735   58.4897 H       1  ZINC000763800048    0.1200
     28 H28        -8.4414   -4.1309   59.5085 H       1  ZINC000763800048    0.1200
     29 H29       -11.0451   -3.9478   56.8341 H       1  ZINC000763800048    0.1200
     30 H30       -12.7800   -2.2030   56.7754 H       1  ZINC000763800048    0.1300
     31 H31       -12.7676   -0.3956   58.4453 H       1  ZINC000763800048    0.1400
     32 H32       -10.3086    0.5711   60.3805 H       1  ZINC000763800048    0.4100
     33 H33       -12.8365    1.6494   62.4681 H       1  ZINC000763800048    0.1300
     34 H34        -9.9872    0.6251   62.9480 H       1  ZINC000763800048    0.1400
     35 H35        -8.8617    1.8866   64.7800 H       1  ZINC000763800048    0.1400
     36 H36        -8.8549    3.6950   66.4452 H       1  ZINC000763800048    0.1400
     37 H37       -12.8078    4.8117   65.2799 H       1  ZINC000763800048    0.1400
     38 H38       -12.8343    3.0140   63.6031 H       1  ZINC000763800048    0.1400
     39 H39        -9.2746   -2.0901   60.2394 H       1  ZINC000763800048    0.1300
@<TRIPOS>BOND
     1     1     2    1
     2     1    24    1
     3     1    25    1
     4     1    26    1
     5     2     3    1
     6     3     4    2
     7     3     5    1
     8     5     6    1
     9     5    27    1
    10     5    28    1
    11     6    23   ar
    12     6     7   ar
    13     7     8   ar
    14     7    29    1
    15     8     9   ar
    16     8    30    1
    17     9    10   ar
    18     9    31    1
    19    10    11    1
    20    10    23   ar
    21    11    12   am
    22    11    32    1
    23    12    13    2
    24    12    14    1
    25    14    15    2
    26    14    33    1
    27    15    16    1
    28    15    34    1
    29    16    22   ar
    30    16    17   ar
    31    17    18   ar
    32    17    35    1
    33    18    19   ar
    34    18    36    1
    35    19    20    1
    36    19    21   ar
    37    21    22   ar
    38    21    37    1
    39    22    38    1
    40    23    39    1
@<TRIPOS>SUBSTRUCTURE
     1 ZINC000763800048        1 TEMP              0 ****  ****    0 ROOT


##########                                Name:    ZINC000460163972
##########                DOCK_Rotatable_Bonds:                   7
##########                         Heavy_Atoms:                  28
##########                    Molecular_Weight:             408.469
##########                DOCK_Rotatable_Bonds:                   7
##########                       Formal_Charge:          -0.0100001
##########                     HBond_Acceptors:                   8
##########                        HBond_Donors:                   2
##########                         Heavy_Atoms:                  28
##########                          Grid_Score:          -27.955492
##########                     Grid_vdw_energy:          -25.347214
##########                      Grid_es_energy:           -2.608278
##########           Internal_energy_repulsive:           44.401443

@<TRIPOS>MOLECULE
ZINC000460163972
 50 52 1 0 0
SMALL
USER_CHARGES


@<TRIPOS>ATOM
      1 C1        -11.7399   -3.2795   57.6878 C.3     1  ZINC000460163972   -0.1400
      2 C2        -11.3228   -2.3299   58.7811 C.ar    1  ZINC000460163972    0.0100
      3 C3         -9.9814   -2.0744   58.9982 C.ar    1  ZINC000460163972   -0.1300
      4 C4         -9.5957   -1.2045   59.9996 C.ar    1  ZINC000460163972   -0.0600
      5 C5        -10.5567   -0.5862   60.7882 C.ar    1  ZINC000460163972    0.1100
      6 N6        -10.1694    0.2958   61.8030 N.am    1  ZINC000460163972   -0.6700
      7 C7         -9.9744    1.5999   61.5244 C.2     1  ZINC000460163972    0.5200
      8 O8        -10.1347    2.0090   60.3938 O.2     1  ZINC000460163972   -0.5100
      9 C9         -9.5573    2.5499   62.6173 C.3     1  ZINC000460163972   -0.0700
     10 H10        -8.7868    2.0825   63.2305 H       1  ZINC000460163972    0.1200
     11 C11        -9.0042    3.8332   61.9940 C.3     1  ZINC000460163972   -0.1500
     12 C12       -10.7500    2.8822   63.4763 C.ar    1  ZINC000460163972   -0.0600
     13 C13       -10.6228    2.9122   64.8523 C.ar    1  ZINC000460163972   -0.0700
     14 C14       -11.7157    3.2166   65.6426 C.ar    1  ZINC000460163972   -0.1200
     15 C15       -12.9383    3.4921   65.0561 C.ar    1  ZINC000460163972    0.0700
     16 F16       -14.0066    3.7902   65.8275 F       1  ZINC000460163972   -0.1300
     17 C17       -13.0658    3.4624   63.6754 C.ar    1  ZINC000460163972    0.0700
     18 F18       -14.2585    3.7310   63.1004 F       1  ZINC000460163972   -0.1300
     19 C19       -11.9690    3.1621   62.8870 C.ar    1  ZINC000460163972   -0.1200
     20 C20       -11.9034   -0.8447   60.5673 C.ar    1  ZINC000460163972    0.0000
     21 C21       -12.9498   -0.1754   61.4206 C.3     1  ZINC000460163972   -0.1500
     22 C22       -12.2826   -1.7116   59.5616 C.ar    1  ZINC000460163972   -0.6700
     23 S23       -13.9907   -2.0397   59.2801 S.o2    1  ZINC000460163972    2.7000
     24 O24       -14.2360   -3.3471   59.7801 O.2     1  ZINC000460163972   -0.9500
     25 O25       -14.6988   -0.8914   59.7264 O.2     1  ZINC000460163972   -0.9500
     26 N26       -14.2112   -2.1172   57.6406 N.am    1  ZINC000460163972   -1.0900
     27 C27       -13.8946   -0.9575   56.8034 C.3     1  ZINC000460163972    0.0800
     28 C28       -13.7752   -1.1866   55.2953 C.3     1  ZINC000460163972   -0.1800
     29 C29       -14.9875   -0.4457   55.8629 C.3     1  ZINC000460163972   -0.1900
     30 H30       -11.9760   -2.7142   56.7862 H       1  ZINC000460163972    0.1000
     31 H31       -10.9256   -3.9733   57.4788 H       1  ZINC000460163972    0.0800
     32 H32       -12.6198   -3.8376   58.0076 H       1  ZINC000460163972    0.0700
     33 H33        -9.2343   -2.5556   58.3844 H       1  ZINC000460163972    0.1400
     34 H34        -8.5477   -1.0059   60.1690 H       1  ZINC000460163972    0.1600
     35 H35       -10.0412   -0.0313   62.7072 H       1  ZINC000460163972    0.4100
     36 H36        -8.7025    4.5202   62.7845 H       1  ZINC000460163972    0.0800
     37 H37        -8.1415    3.5928   61.3726 H       1  ZINC000460163972    0.0700
     38 H38        -9.7747    4.3006   61.3809 H       1  ZINC000460163972    0.0700
     39 H39        -9.6689    2.6972   65.3107 H       1  ZINC000460163972    0.1400
     40 H40       -11.6152    3.2391   66.7176 H       1  ZINC000460163972    0.1500
     41 H41       -12.0669    3.1389   61.8117 H       1  ZINC000460163972    0.1500
     42 H42       -13.3300    0.7062   60.9045 H       1  ZINC000460163972    0.1000
     43 H43       -13.7689   -0.8710   61.6034 H       1  ZINC000460163972    0.1000
     44 H44       -12.5073    0.1226   62.3712 H       1  ZINC000460163972    0.0700
     45 H45       -14.5501   -2.9305   57.2348 H       1  ZINC000460163972    0.4200
     46 H46       -13.2322   -0.2188   57.2545 H       1  ZINC000460163972    0.1300
     47 H47       -13.0341   -0.5985   54.7540 H       1  ZINC000460163972    0.1100
     48 H48       -13.9323   -2.2001   54.9261 H       1  ZINC000460163972    0.1000
     49 H49       -15.9422   -0.9718   55.8673 H       1  ZINC000460163972    0.1000
     50 H50       -15.0440    0.6299   55.6952 H       1  ZINC000460163972    0.1000
@<TRIPOS>BOND
     1     1     2    1
     2     1    30    1
     3     1    31    1
     4     1    32    1
     5     2    22   ar
     6     2     3   ar
     7     3     4   ar
     8     3    33    1
     9     4     5   ar
    10     4    34    1
    11     5     6    1
    12     5    20   ar
    13     6     7   am
    14     6    35    1
    15     7     8    2
    16     7     9    1
    17     9    10    1
    18     9    11    1
    19     9    12    1
    20    11    36    1
    21    11    37    1
    22    11    38    1
    23    12    19   ar
    24    12    13   ar
    25    13    14   ar
    26    13    39    1
    27    14    15   ar
    28    14    40    1
    29    15    16    1
    30    15    17   ar
    31    17    18    1
    32    17    19   ar
    33    19    41    1
    34    20    21    1
    35    20    22   ar
    36    21    42    1
    37    21    43    1
    38    21    44    1
    39    22    23    1
    40    23    24    2
    41    23    25    2
    42    23    26   am
    43    26    27    1
    44    26    45    1
    45    27    29    1
    46    27    28    1
    47    27    46    1
    48    28    29    1
    49    28    47    1
    50    28    48    1
    51    29    49    1
    52    29    50    1
@<TRIPOS>SUBSTRUCTURE
     1 ZINC000460163972        1 TEMP              0 ****  ****    0 ROOT


##########                                Name:    ZINC000885154703
##########                DOCK_Rotatable_Bonds:                   5
##########                         Heavy_Atoms:                  24
##########                    Molecular_Weight:             396.259
##########                DOCK_Rotatable_Bonds:                   5
##########                       Formal_Charge:          -0.0099998
##########                     HBond_Acceptors:                   6
##########                        HBond_Donors:                   1
##########                         Heavy_Atoms:                  24
##########                          Grid_Score:          -27.938833
##########                     Grid_vdw_energy:          -28.097437
##########                      Grid_es_energy:            0.158603
##########           Internal_energy_repulsive:            9.385791

@<TRIPOS>MOLECULE
ZINC000885154703
 43 45 1 0 0
SMALL
USER_CHARGES


@<TRIPOS>ATOM
      1 C1         -6.1890   -3.9162   55.6186 C.3     1  ZINC000885154703   -0.1500
      2 C2         -7.4435   -4.5709   56.2007 C.3     1  ZINC000885154703   -0.0300
      3 C3         -7.7922   -3.9123   57.5105 C.2     1  ZINC000885154703    0.1700
      4 N4         -6.9537   -3.4015   58.3617 N.2     1  ZINC000885154703   -0.3800
      5 O5         -7.5488   -2.9472   59.3162 O.3     1  ZINC000885154703    0.0800
      6 C6         -8.8632   -3.1306   59.1597 C.2     1  ZINC000885154703    0.1800
      7 C7         -9.9482   -2.7120   60.1181 C.3     1  ZINC000885154703    0.0000
      8 H8        -10.1683   -3.5246   60.8105 H       1  ZINC000885154703    0.1300
      9 C9        -11.2211   -2.3231   59.3382 C.3     1  ZINC000885154703   -0.1200
     10 C10       -11.8019   -1.1263   60.1317 C.3     1  ZINC000885154703   -0.1300
     11 C11       -10.5310   -0.3527   60.5623 C.3     1  ZINC000885154703    0.1400
     12 H12       -10.1668    0.2682   59.7438 H       1  ZINC000885154703    0.1000
     13 N13       -10.8064    0.4684   61.7439 N.am    1  ZINC000885154703   -0.7100
     14 C14       -11.2714    1.7250   61.5978 C.2     1  ZINC000885154703    0.5700
     15 O15       -11.4610    2.1775   60.4855 O.2     1  ZINC000885154703   -0.5100
     16 C16       -11.5507    2.5522   62.7891 C.ar    1  ZINC000885154703   -0.1600
     17 C17       -12.8576    2.9632   63.0683 C.ar    1  ZINC000885154703    0.1500
     18 F18       -13.8702    2.6051   62.2488 F       1  ZINC000885154703   -0.1200
     19 C19       -13.1107    3.7374   64.1863 C.ar    1  ZINC000885154703   -0.1500
     20 C20       -12.0754    4.1042   65.0249 C.ar    1  ZINC000885154703   -0.0400
     21 C21       -10.7784    3.6998   64.7534 C.ar    1  ZINC000885154703   -0.1100
     22 Br22       -9.3710    4.2087   65.9093 Br      1  ZINC000885154703   -0.0300
     23 C23       -10.5115    2.9228   63.6455 C.ar    1  ZINC000885154703    0.0100
     24 C24        -9.0997    2.4842   63.3532 C.3     1  ZINC000885154703   -0.1300
     25 C25        -9.5089   -1.4600   60.8973 C.3     1  ZINC000885154703   -0.1300
     26 N26        -9.0288   -3.7399   58.0103 N.2     1  ZINC000885154703   -0.4800
     27 H27        -6.3764   -2.8552   55.4532 H       1  ZINC000885154703    0.0600
     28 H28        -5.3604   -4.0344   56.3166 H       1  ZINC000885154703    0.0600
     29 H29        -5.9368   -4.3927   54.6712 H       1  ZINC000885154703    0.0700
     30 H30        -8.2722   -4.4528   55.5026 H       1  ZINC000885154703    0.1000
     31 H31        -7.2561   -5.6319   56.3660 H       1  ZINC000885154703    0.0900
     32 H32       -10.9683   -2.0203   58.3220 H       1  ZINC000885154703    0.0800
     33 H33       -11.9289   -3.1518   59.3254 H       1  ZINC000885154703    0.0900
     34 H34       -12.4323   -0.5084   59.4924 H       1  ZINC000885154703    0.0800
     35 H35       -12.3566   -1.4736   61.0033 H       1  ZINC000885154703    0.0800
     36 H36       -10.6539    0.1078   62.6314 H       1  ZINC000885154703    0.4000
     37 H37       -14.1194    4.0562   64.4040 H       1  ZINC000885154703    0.1500
     38 H38       -12.2784    4.7092   65.8961 H       1  ZINC000885154703    0.1500
     39 H39        -8.9072    1.5294   63.8426 H       1  ZINC000885154703    0.0900
     40 H40        -8.9691    2.3735   62.2767 H       1  ZINC000885154703    0.0800
     41 H41        -8.4017    3.2323   63.7290 H       1  ZINC000885154703    0.0900
     42 H42        -9.5166   -1.6636   61.9681 H       1  ZINC000885154703    0.0900
     43 H43        -8.5112   -1.1550   60.5819 H       1  ZINC000885154703    0.0800
@<TRIPOS>BOND
     1     1     2    1
     2     1    27    1
     3     1    28    1
     4     1    29    1
     5     2     3    1
     6     2    30    1
     7     2    31    1
     8     3    26    1
     9     3     4    2
    10     4     5    1
    11     5     6    1
    12     6     7    1
    13     6    26    2
    14     7     8    1
    15     7    25    1
    16     7     9    1
    17     9    10    1
    18     9    32    1
    19     9    33    1
    20    10    11    1
    21    10    34    1
    22    10    35    1
    23    11    12    1
    24    11    13    1
    25    11    25    1
    26    13    14   am
    27    13    36    1
    28    14    15    2
    29    14    16    1
    30    16    23   ar
    31    16    17   ar
    32    17    18    1
    33    17    19   ar
    34    19    20   ar
    35    19    37    1
    36    20    21   ar
    37    20    38    1
    38    21    22    1
    39    21    23   ar
    40    23    24    1
    41    24    39    1
    42    24    40    1
    43    24    41    1
    44    25    42    1
    45    25    43    1
@<TRIPOS>SUBSTRUCTURE
     1 ZINC000885154703        1 TEMP              0 ****  ****    0 ROOT


##########                                Name:    ZINC000279331220
##########                DOCK_Rotatable_Bonds:                   9
##########                         Heavy_Atoms:                  24
##########                    Molecular_Weight:             328.411
##########                DOCK_Rotatable_Bonds:                   9
##########                       Formal_Charge:          -0.0100001
##########                     HBond_Acceptors:                   5
##########                        HBond_Donors:                   0
##########                         Heavy_Atoms:                  24
##########                          Grid_Score:          -27.931261
##########                     Grid_vdw_energy:          -25.514874
##########                      Grid_es_energy:           -2.416388
##########           Internal_energy_repulsive:           66.623367

@<TRIPOS>MOLECULE
ZINC000279331220
 48 49 1 0 0
SMALL
USER_CHARGES


@<TRIPOS>ATOM
      1 C1        -14.8627   -0.9780   54.0342 C.3     1  ZINC000279331220   -0.1500
      2 C2        -14.2070   -1.2428   55.3909 C.3     1  ZINC000279331220    0.0500
      3 O3        -13.0806   -2.1045   55.2154 O.3     1  ZINC000279331220   -0.3000
      4 C4        -12.3810   -2.4414   56.3319 C.ar    1  ZINC000279331220    0.1000
      5 C5        -11.2777   -3.2734   56.2349 C.ar    1  ZINC000279331220   -0.1700
      6 C6        -10.5671   -3.6146   57.3711 C.ar    1  ZINC000279331220   -0.1200
      7 C7        -10.9552   -3.1275   58.6049 C.ar    1  ZINC000279331220   -0.1200
      8 C8        -12.0559   -2.2969   58.7088 C.ar    1  ZINC000279331220   -0.1700
      9 C9        -12.7684   -1.9462   57.5737 C.ar    1  ZINC000279331220    0.1000
     10 O10       -13.8511   -1.1294   57.6741 O.3     1  ZINC000279331220   -0.3000
     11 C11       -14.1294   -0.5763   58.9620 C.3     1  ZINC000279331220    0.0600
     12 C12       -13.1303    0.5425   59.2634 C.3     1  ZINC000279331220   -0.1100
     13 C13       -13.4737    1.1843   60.6090 C.3     1  ZINC000279331220   -0.1300
     14 C14       -12.4877    0.7239   61.6515 C.2     1  ZINC000279331220    0.5200
     15 O15       -12.7572   -0.2172   62.3673 O.2     1  ZINC000279331220   -0.5200
     16 N16       -11.3063    1.3579   61.7884 N.am    1  ZINC000279331220   -0.5700
     17 C17       -10.9815    2.4960   60.9249 C.3     1  ZINC000279331220    0.0800
     18 C18       -10.3935    0.9310   62.7517 C.ar    1  ZINC000279331220    0.3400
     19 N19       -10.3719    1.5151   63.9390 N.ar    1  ZINC000279331220   -0.4800
     20 C20        -9.5243    1.1418   64.8786 C.ar    1  ZINC000279331220    0.1100
     21 C21        -8.6231    0.1201   64.6539 C.ar    1  ZINC000279331220   -0.1600
     22 C22        -8.6135   -0.5188   63.4212 C.ar    1  ZINC000279331220   -0.0700
     23 C23        -9.5181   -0.1086   62.4580 C.ar    1  ZINC000279331220   -0.1200
     24 C24        -9.5464   -0.7718   61.1051 C.3     1  ZINC000279331220   -0.1100
     25 H25       -15.7218   -0.3207   54.1680 H       1  ZINC000279331220    0.0800
     26 H26       -14.1419   -0.5028   53.3688 H       1  ZINC000279331220    0.0700
     27 H27       -15.1916   -1.9218   53.5992 H       1  ZINC000279331220    0.0700
     28 H28       -13.8781   -0.2990   55.8259 H       1  ZINC000279331220    0.0600
     29 H29       -14.9278   -1.7180   56.0564 H       1  ZINC000279331220    0.0600
     30 H30       -10.9728   -3.6559   55.2721 H       1  ZINC000279331220    0.1300
     31 H31        -9.7071   -4.2633   57.2942 H       1  ZINC000279331220    0.1300
     32 H32       -10.3978   -3.3966   59.4900 H       1  ZINC000279331220    0.1300
     33 H33       -12.3575   -1.9182   59.6742 H       1  ZINC000279331220    0.1300
     34 H34       -15.1416   -0.1721   58.9728 H       1  ZINC000279331220    0.0600
     35 H35       -14.0413   -1.3557   59.7189 H       1  ZINC000279331220    0.0600
     36 H36       -12.1228    0.1285   59.3048 H       1  ZINC000279331220    0.0800
     37 H37       -13.1811    1.2964   58.4777 H       1  ZINC000279331220    0.0800
     38 H38       -13.4251    2.2693   60.5170 H       1  ZINC000279331220    0.1000
     39 H39       -14.4803    0.8896   60.9057 H       1  ZINC000279331220    0.1000
     40 H40       -11.4049    3.4064   61.3490 H       1  ZINC000279331220    0.0700
     41 H41        -9.8988    2.5989   60.8513 H       1  ZINC000279331220    0.0800
     42 H42       -11.3989    2.3294   59.9319 H       1  ZINC000279331220    0.0800
     43 H43        -9.5352    1.6420   65.8357 H       1  ZINC000279331220    0.1600
     44 H44        -7.9327   -0.1787   65.4288 H       1  ZINC000279331220    0.1400
     45 H45        -7.9186   -1.3207   63.2204 H       1  ZINC000279331220    0.1400
     46 H46       -10.3010   -1.5584   61.1017 H       1  ZINC000279331220    0.0800
     47 H47        -9.7895   -0.0317   60.3427 H       1  ZINC000279331220    0.0700
     48 H48        -8.5691   -1.2051   60.8924 H       1  ZINC000279331220    0.0700
@<TRIPOS>BOND
     1     1     2    1
     2     1    25    1
     3     1    26    1
     4     1    27    1
     5     2     3    1
     6     2    28    1
     7     2    29    1
     8     3     4    1
     9     4     9   ar
    10     4     5   ar
    11     5     6   ar
    12     5    30    1
    13     6     7   ar
    14     6    31    1
    15     7     8   ar
    16     7    32    1
    17     8     9   ar
    18     8    33    1
    19     9    10    1
    20    10    11    1
    21    11    12    1
    22    11    34    1
    23    11    35    1
    24    12    13    1
    25    12    36    1
    26    12    37    1
    27    13    14    1
    28    13    38    1
    29    13    39    1
    30    14    15    2
    31    14    16   am
    32    16    17    1
    33    16    18    1
    34    17    40    1
    35    17    41    1
    36    17    42    1
    37    18    23   ar
    38    18    19   ar
    39    19    20   ar
    40    20    21   ar
    41    20    43    1
    42    21    22   ar
    43    21    44    1
    44    22    23   ar
    45    22    45    1
    46    23    24    1
    47    24    46    1
    48    24    47    1
    49    24    48    1
@<TRIPOS>SUBSTRUCTURE
     1 ZINC000279331220        1 TEMP              0 ****  ****    0 ROOT


##########                                Name:    ZINC000952280524
##########                DOCK_Rotatable_Bonds:                   9
##########                         Heavy_Atoms:                  25
##########                    Molecular_Weight:             348.486
##########                DOCK_Rotatable_Bonds:                   9
##########                       Formal_Charge:          -0.0100004
##########                     HBond_Acceptors:                   5
##########                        HBond_Donors:                   1
##########                         Heavy_Atoms:                  25
##########                          Grid_Score:          -27.920170
##########                     Grid_vdw_energy:          -25.667042
##########                      Grid_es_energy:           -2.253128
##########           Internal_energy_repulsive:           25.824846

@<TRIPOS>MOLECULE
ZINC000952280524
 57 59 1 0 0
SMALL
USER_CHARGES


@<TRIPOS>ATOM
      1 C1        -15.6074   -2.7987   57.0450 C.3     1  ZINC000952280524   -0.1800
      2 C2        -14.2830   -3.3634   57.5625 C.3     1  ZINC000952280524    0.1400
      3 C3        -14.2390   -3.2451   59.0872 C.3     1  ZINC000952280524   -0.1900
      4 O4        -14.1725   -4.7380   57.1881 O.3     1  ZINC000952280524   -0.5500
      5 C5        -13.1206   -2.5747   56.9560 C.3     1  ZINC000952280524   -0.1200
      6 C6        -11.8185   -3.0936   57.5095 C.2     1  ZINC000952280524    0.5300
      7 O7        -11.3577   -4.1373   57.0981 O.2     1  ZINC000952280524   -0.5100
      8 N8        -11.1661   -2.3978   58.4616 N.am    1  ZINC000952280524   -0.6300
      9 C9         -9.8932   -2.7864   59.0864 C.3     1  ZINC000952280524    0.1000
     10 C10        -9.5468   -1.7052   60.1317 C.3     1  ZINC000952280524   -0.1300
     11 C11       -10.9258   -1.0628   60.4371 C.3     1  ZINC000952280524   -0.1000
     12 H12       -11.4777   -1.6521   61.1694 H       1  ZINC000952280524    0.0900
     13 C13       -10.7643    0.3832   60.9103 C.3     1  ZINC000952280524   -0.0700
     14 C14       -12.1401    0.9706   61.2331 C.3     1  ZINC000952280524   -0.1300
     15 C15       -11.9777    2.4289   61.6734 C.3     1  ZINC000952280524    0.1100
     16 N16       -11.0220    2.4828   62.7881 N.am    1  ZINC000952280524   -0.6100
     17 C17       -11.3523    3.0857   63.9473 C.2     1  ZINC000952280524    0.5500
     18 O18       -12.4504    3.5918   64.0781 O.2     1  ZINC000952280524   -0.5500
     19 C19       -10.3846    3.1315   65.0543 C.2     1  ZINC000952280524   -0.2200
     20 C20        -9.6737    4.2345   65.2707 C.2     1  ZINC000952280524   -0.0300
     21 C21        -8.6836    4.2820   66.4059 C.3     1  ZINC000952280524   -0.1500
     22 C22        -8.1664    2.9483   66.9484 C.3     1  ZINC000952280524   -0.1700
     23 C23        -7.2486    3.8408   66.1106 C.3     1  ZINC000952280524   -0.1600
     24 C24        -9.6995    1.8663   62.6151 C.3     1  ZINC000952280524    0.1000
     25 C25        -9.8875    0.4144   62.1643 C.3     1  ZINC000952280524   -0.1300
     26 C26       -11.6073   -1.1176   59.0447 C.3     1  ZINC000952280524    0.1100
     27 H27       -15.7320   -1.7772   57.4045 H       1  ZINC000952280524    0.0700
     28 H28       -15.6028   -2.8022   55.9551 H       1  ZINC000952280524    0.0600
     29 H29       -16.4309   -3.4141   57.4071 H       1  ZINC000952280524    0.0600
     30 H30       -15.0670   -3.8070   59.5193 H       1  ZINC000952280524    0.0600
     31 H31       -13.2954   -3.6474   59.4559 H       1  ZINC000952280524    0.0800
     32 H32       -14.3232   -2.1965   59.3729 H       1  ZINC000952280524    0.0600
     33 H33       -14.8785   -5.2988   57.5376 H       1  ZINC000952280524    0.3700
     34 H34       -13.1276   -2.6928   55.8725 H       1  ZINC000952280524    0.1000
     35 H35       -13.2273   -1.5194   57.2072 H       1  ZINC000952280524    0.1000
     36 H36       -10.0010   -3.7543   59.5760 H       1  ZINC000952280524    0.0700
     37 H37        -9.1093   -2.8361   58.3307 H       1  ZINC000952280524    0.0700
     38 H38        -9.1249   -2.1576   61.0291 H       1  ZINC000952280524    0.0800
     39 H39        -8.8625   -0.9680   59.7117 H       1  ZINC000952280524    0.0800
     40 H40       -10.2936    0.9725   60.1234 H       1  ZINC000952280524    0.0800
     41 H41       -12.7717    0.9267   60.3459 H       1  ZINC000952280524    0.0800
     42 H42       -12.6011    0.3970   62.0372 H       1  ZINC000952280524    0.0700
     43 H43       -11.6012    3.0224   60.8402 H       1  ZINC000952280524    0.0700
     44 H44       -12.9410    2.8219   61.9987 H       1  ZINC000952280524    0.0900
     45 H45       -10.2515    2.2696   65.6911 H       1  ZINC000952280524    0.1300
     46 H46        -9.8059    5.0959   64.6330 H       1  ZINC000952280524    0.1300
     47 H47        -8.8237    5.0951   67.1181 H       1  ZINC000952280524    0.1200
     48 H48        -7.9661    2.8836   68.0179 H       1  ZINC000952280524    0.1000
     49 H49        -8.5422    2.0364   66.4843 H       1  ZINC000952280524    0.1000
     50 H50        -7.0207    3.5162   65.0953 H       1  ZINC000952280524    0.1000
     51 H51        -6.4446    4.3635   66.6289 H       1  ZINC000952280524    0.1000
     52 H52        -9.1372    2.4139   61.8588 H       1  ZINC000952280524    0.0700
     53 H53        -9.1597    1.8880   63.5618 H       1  ZINC000952280524    0.0900
     54 H54       -10.3696   -0.1540   62.9596 H       1  ZINC000952280524    0.0700
     55 H55        -8.9158   -0.0255   61.9398 H       1  ZINC000952280524    0.0800
     56 H56       -11.2789   -0.2808   58.4284 H       1  ZINC000952280524    0.0700
     57 H57       -12.6919   -1.1075   59.1525 H       1  ZINC000952280524    0.0800
@<TRIPOS>BOND
     1     1     2    1
     2     1    27    1
     3     1    28    1
     4     1    29    1
     5     2     3    1
     6     2     4    1
     7     2     5    1
     8     3    30    1
     9     3    31    1
    10     3    32    1
    11     4    33    1
    12     5     6    1
    13     5    34    1
    14     5    35    1
    15     6     7    2
    16     6     8   am
    17     8    26    1
    18     8     9    1
    19     9    10    1
    20     9    36    1
    21     9    37    1
    22    10    11    1
    23    10    38    1
    24    10    39    1
    25    11    12    1
    26    11    13    1
    27    11    26    1
    28    13    25    1
    29    13    14    1
    30    13    40    1
    31    14    15    1
    32    14    41    1
    33    14    42    1
    34    15    16    1
    35    15    43    1
    36    15    44    1
    37    16    17   am
    38    16    24    1
    39    17    18    2
    40    17    19    1
    41    19    20    2
    42    19    45    1
    43    20    21    1
    44    20    46    1
    45    21    23    1
    46    21    22    1
    47    21    47    1
    48    22    23    1
    49    22    48    1
    50    22    49    1
    51    23    50    1
    52    23    51    1
    53    24    25    1
    54    24    52    1
    55    24    53    1
    56    25    54    1
    57    25    55    1
    58    26    56    1
    59    26    57    1
@<TRIPOS>SUBSTRUCTURE
     1 ZINC000952280524        1 TEMP              0 ****  ****    0 ROOT


##########                                Name:    ZINC000066361645
##########                DOCK_Rotatable_Bonds:                   8
##########                         Heavy_Atoms:                  27
##########                    Molecular_Weight:             392.519
##########                DOCK_Rotatable_Bonds:                   8
##########                       Formal_Charge:           0.0100004
##########                     HBond_Acceptors:                   7
##########                        HBond_Donors:                   2
##########                         Heavy_Atoms:                  27
##########                          Grid_Score:          -27.918861
##########                     Grid_vdw_energy:          -24.277824
##########                      Grid_es_energy:           -3.641037
##########           Internal_energy_repulsive:           12.554613

@<TRIPOS>MOLECULE
ZINC000066361645
 55 57 1 0 0
SMALL
USER_CHARGES


@<TRIPOS>ATOM
      1 C1        -15.0656   -3.7123   56.6665 C.3     1  ZINC000066361645   -0.1400
      2 S2        -14.8403   -2.0199   57.2790 S.3     1  ZINC000066361645   -0.1100
      3 C3        -13.1700   -2.0204   57.8397 C.ar    1  ZINC000066361645   -0.1200
      4 C4        -12.3261   -3.0696   57.5076 C.ar    1  ZINC000066361645   -0.1100
      5 C5        -11.0105   -3.0706   57.9479 C.ar    1  ZINC000066361645    0.0500
      6 C6        -10.5362   -2.0184   58.7215 C.ar    1  ZINC000066361645    0.0700
      7 C7        -11.3792   -0.9687   59.0564 C.ar    1  ZINC000066361645   -0.1100
      8 C8        -12.6926   -0.9630   58.6134 C.ar    1  ZINC000066361645    0.1800
      9 N9        -13.5438    0.0996   58.9526 N.am    1  ZINC000066361645   -0.6600
     10 C10       -13.1676    1.3698   58.7049 C.2     1  ZINC000066361645    0.5100
     11 O11       -12.0930    1.5945   58.1888 O.2     1  ZINC000066361645   -0.5000
     12 C12       -14.0818    2.5111   59.0692 C.3     1  ZINC000066361645   -0.1500
     13 C13       -14.2060    2.5991   60.5916 C.3     1  ZINC000066361645    0.1600
     14 H14       -14.6179    1.6665   60.9771 H       1  ZINC000066361645    0.1000
     15 C15       -15.1341    3.7579   60.9614 C.3     1  ZINC000066361645   -0.1600
     16 N16       -12.8827    2.8275   61.1771 N.am    1  ZINC000066361645   -0.7200
     17 C17       -12.6020    2.3620   62.4105 C.2     1  ZINC000066361645    0.5300
     18 O18       -13.4447    1.7531   63.0350 O.2     1  ZINC000066361645   -0.5400
     19 C19       -11.2413    2.5985   63.0135 C.3     1  ZINC000066361645   -0.1100
     20 C20       -11.2499    3.9163   63.7906 C.3     1  ZINC000066361645   -0.1100
     21 C21        -9.8684    4.1564   64.4028 C.3     1  ZINC000066361645   -0.1200
     22 C22        -9.5245    3.0068   65.3521 C.3     1  ZINC000066361645   -0.1200
     23 C23        -9.5159    1.6888   64.5749 C.3     1  ZINC000066361645   -0.1200
     24 C24       -10.8975    1.4488   63.9627 C.3     1  ZINC000066361645   -0.1000
     25 O25        -9.2449   -1.9998   59.1558 O.3     1  ZINC000066361645   -0.3000
     26 C26        -8.5348   -3.2422   59.1173 C.3     1  ZINC000066361645    0.0200
     27 C27        -8.7890   -3.8988   57.7537 C.3     1  ZINC000066361645    0.0200
     28 O28       -10.1979   -4.1117   57.6147 O.3     1  ZINC000066361645   -0.3100
     29 H29       -14.3543   -3.9059   55.8636 H       1  ZINC000066361645    0.0900
     30 H30       -14.8969   -4.4185   57.4795 H       1  ZINC000066361645    0.0900
     31 H31       -16.0812   -3.8297   56.2882 H       1  ZINC000066361645    0.1100
     32 H32       -12.6938   -3.8873   56.9054 H       1  ZINC000066361645    0.1400
     33 H33       -11.0104   -0.1526   59.6599 H       1  ZINC000066361645    0.1600
     34 H34       -14.4030   -0.0800   59.3653 H       1  ZINC000066361645    0.4100
     35 H35       -13.6701    3.4438   58.6837 H       1  ZINC000066361645    0.1000
     36 H36       -15.0664    2.3411   58.6336 H       1  ZINC000066361645    0.1200
     37 H37       -14.7222    4.6906   60.5759 H       1  ZINC000066361645    0.0600
     38 H38       -16.1187    3.5881   60.5258 H       1  ZINC000066361645    0.0700
     39 H39       -15.2226    3.8207   62.0460 H       1  ZINC000066361645    0.0700
     40 H40       -12.2083    3.3135   60.6771 H       1  ZINC000066361645    0.4000
     41 H41       -10.4960    2.6495   62.2197 H       1  ZINC000066361645    0.1000
     42 H42       -11.4949    4.7354   63.1144 H       1  ZINC000066361645    0.0600
     43 H43       -11.9951    3.8653   64.5844 H       1  ZINC000066361645    0.0700
     44 H44        -9.1231    4.2074   63.6091 H       1  ZINC000066361645    0.0600
     45 H45        -9.8744    5.0952   64.9565 H       1  ZINC000066361645    0.0700
     46 H46        -8.5403    3.1778   65.7882 H       1  ZINC000066361645    0.0600
     47 H47       -10.2697    2.9556   66.1458 H       1  ZINC000066361645    0.0600
     48 H48        -8.7706    1.7400   63.7811 H       1  ZINC000066361645    0.0600
     49 H49        -9.2709    0.8698   65.2511 H       1  ZINC000066361645    0.0700
     50 H50       -11.6427    1.3977   64.7565 H       1  ZINC000066361645    0.0700
     51 H51       -10.8913    0.5100   63.4090 H       1  ZINC000066361645    0.0700
     52 H52        -7.4677   -3.0599   59.2443 H       1  ZINC000066361645    0.1300
     53 H53        -8.8939   -3.8956   59.9126 H       1  ZINC000066361645    0.0800
     54 H54        -8.4361   -3.2426   56.9582 H       1  ZINC000066361645    0.0800
     55 H55        -8.2661   -4.8539   57.7023 H       1  ZINC000066361645    0.1200
@<TRIPOS>BOND
     1     1     2    1
     2     1    29    1
     3     1    30    1
     4     1    31    1
     5     2     3    1
     6     3     8   ar
     7     3     4   ar
     8     4     5   ar
     9     4    32    1
    10     5    28    1
    11     5     6   ar
    12     6     7   ar
    13     6    25    1
    14     7     8   ar
    15     7    33    1
    16     8     9    1
    17     9    10   am
    18     9    34    1
    19    10    11    2
    20    10    12    1
    21    12    13    1
    22    12    35    1
    23    12    36    1
    24    13    14    1
    25    13    15    1
    26    13    16    1
    27    15    37    1
    28    15    38    1
    29    15    39    1
    30    16    17   am
    31    16    40    1
    32    17    18    2
    33    17    19    1
    34    19    24    1
    35    19    20    1
    36    19    41    1
    37    20    21    1
    38    20    42    1
    39    20    43    1
    40    21    22    1
    41    21    44    1
    42    21    45    1
    43    22    23    1
    44    22    46    1
    45    22    47    1
    46    23    24    1
    47    23    48    1
    48    23    49    1
    49    24    50    1
    50    24    51    1
    51    25    26    1
    52    26    27    1
    53    26    52    1
    54    26    53    1
    55    27    28    1
    56    27    54    1
    57    27    55    1
@<TRIPOS>SUBSTRUCTURE
     1 ZINC000066361645        1 TEMP              0 ****  ****    0 ROOT


##########                                Name:    ZINC000013551438
##########                DOCK_Rotatable_Bonds:                   5
##########                         Heavy_Atoms:                  27
##########                    Molecular_Weight:             377.467
##########                DOCK_Rotatable_Bonds:                   5
##########                       Formal_Charge:          -0.0300005
##########                     HBond_Acceptors:                   6
##########                        HBond_Donors:                   1
##########                         Heavy_Atoms:                  27
##########                          Grid_Score:          -27.912750
##########                     Grid_vdw_energy:          -27.296196
##########                      Grid_es_energy:           -0.616555
##########           Internal_energy_repulsive:           25.156141

@<TRIPOS>MOLECULE
ZINC000013551438
 46 49 1 0 0
SMALL
USER_CHARGES


@<TRIPOS>ATOM
      1 C1         -7.7115    1.8079   66.4289 C.3     1  <0>         0.0300
      2 O2         -8.1076    1.3572   65.1320 O.3     1  <0>        -0.3200
      3 C3         -9.3617    1.6853   64.7207 C.ar    1  <0>         0.1000
      4 C4        -10.0375    2.7394   65.3290 C.ar    1  <0>        -0.1800
      5 C5        -11.3079    3.0842   64.9243 C.ar    1  <0>        -0.0900
      6 C6        -11.9272    2.3772   63.8988 C.ar    1  <0>         0.0700
      7 C7        -11.2463    1.3131   63.2832 C.ar    1  <0>        -0.0400
      8 C8         -9.9582    0.9752   63.6970 C.ar    1  <0>        -0.1100
      9 C9        -12.1596    0.7836   62.2580 C.2     1  <0>        -0.1200
     10 C10       -11.8958   -0.3500   61.3382 C.2     1  <0>         0.1700
     11 C11       -12.8209   -1.2819   61.0412 C.2     1  <0>        -0.3000
     12 S12       -12.0953   -2.4333   59.9229 S.3     1  <0>         0.2500
     13 C13       -10.6251   -1.5625   59.9570 C.2     1  <0>         0.2400
     14 N14        -9.4826   -1.9089   59.2480 N.am    1  <0>        -0.6200
     15 C15        -9.4319   -3.0793   58.5818 C.2     1  <0>         0.5600
     16 O16       -10.3870   -3.8311   58.6004 O.2     1  <0>        -0.5000
     17 C17        -8.2151   -3.4489   57.8287 C.ar    1  <0>        -0.1400
     18 C18        -8.3000   -3.7675   56.4722 C.ar    1  <0>        -0.0800
     19 C19        -7.1603   -4.1111   55.7749 C.ar    1  <0>        -0.1300
     20 C20        -5.9352   -4.1403   56.4172 C.ar    1  <0>        -0.0800
     21 C21        -5.8440   -3.8262   57.7616 C.ar    1  <0>        -0.1300
     22 C22        -6.9751   -3.4752   58.4693 C.ar    1  <0>        -0.0500
     23 N23       -10.7291   -0.5305   60.7322 N.2     1  <0>        -0.5000
     24 C24       -13.2877    1.5306   62.3168 C.2     1  <0>         0.1300
     25 C25       -14.5001    1.3405   61.4422 C.3     1  <0>        -0.0900
     26 N26       -13.1610    2.4829   63.2905 N.pl3   1  <0>        -0.4800
     27 C27       -14.1861    3.4704   63.6374 C.3     1  <0>         0.0800
     28 H28        -8.3839    1.3921   67.1792 H       1  <0>         0.0500
     29 H29        -6.6923    1.4790   66.6322 H       1  <0>         0.1000
     30 H30        -7.7559    2.8964   66.4645 H       1  <0>         0.0500
     31 H31        -9.5614    3.2914   66.1259 H       1  <0>         0.1300
     32 H32       -11.8235    3.9035   65.4032 H       1  <0>         0.1200
     33 H33        -9.4331    0.1578   63.2253 H       1  <0>         0.1300
     34 H34       -13.8310   -1.3173   61.4219 H       1  <0>         0.1800
     35 H35        -8.7209   -1.3085   59.2323 H       1  <0>         0.4200
     36 H36        -9.2558   -3.7454   55.9698 H       1  <0>         0.1300
     37 H37        -7.2247   -4.3582   54.7256 H       1  <0>         0.1300
     38 H38        -5.0460   -4.4100   55.8667 H       1  <0>         0.1300
     39 H39        -4.8847   -3.8512   58.2570 H       1  <0>         0.1300
     40 H40        -6.9025   -3.2298   59.5185 H       1  <0>         0.1400
     41 H41       -15.2273    0.7150   61.9600 H       1  <0>         0.0800
     42 H42       -14.9459    2.3108   61.2234 H       1  <0>         0.0700
     43 H43       -14.2041    0.8583   60.5106 H       1  <0>         0.0800
     44 H44       -14.8352    3.0633   64.4126 H       1  <0>         0.0700
     45 H45       -13.7069    4.3780   64.0045 H       1  <0>         0.0800
     46 H46       -14.7789    3.7046   62.7532 H       1  <0>         0.0800
@<TRIPOS>BOND
     1     1     2    1
     2     1    28    1
     3     1    29    1
     4     1    30    1
     5     2     3    1
     6     3     8   ar
     7     3     4   ar
     8     4     5   ar
     9     4    31    1
    10     5     6   ar
    11     5    32    1
    12     6    26    1
    13     6     7   ar
    14     7     8   ar
    15     7     9    1
    16     8    33    1
    17     9    10    1
    18     9    24    2
    19    10    23    1
    20    10    11    2
    21    11    12    1
    22    11    34    1
    23    12    13    1
    24    13    14    1
    25    13    23    2
    26    14    15   am
    27    14    35    1
    28    15    16    2
    29    15    17    1
    30    17    22   ar
    31    17    18   ar
    32    18    19   ar
    33    18    36    1
    34    19    20   ar
    35    19    37    1
    36    20    21   ar
    37    20    38    1
    38    21    22   ar
    39    21    39    1
    40    22    40    1
    41    24    25    1
    42    24    26    1
    43    25    41    1
    44    25    42    1
    45    25    43    1
    46    26    27    1
    47    27    44    1
    48    27    45    1
    49    27    46    1
@<TRIPOS>SUBSTRUCTURE
     1 <0>         1 TEMP              0 ****  ****    0 ROOT


##########                                Name:    ZINC000866034032
##########                DOCK_Rotatable_Bonds:                   4
##########                         Heavy_Atoms:                  23
##########                    Molecular_Weight:             383.242
##########                DOCK_Rotatable_Bonds:                   4
##########                       Formal_Charge:           0.0199999
##########                     HBond_Acceptors:                   6
##########                        HBond_Donors:                   1
##########                         Heavy_Atoms:                  23
##########                          Grid_Score:          -27.905170
##########                     Grid_vdw_energy:          -27.147217
##########                      Grid_es_energy:           -0.757953
##########           Internal_energy_repulsive:           14.928904

@<TRIPOS>MOLECULE
ZINC000866034032
 42 44 1 0 0
SMALL
USER_CHARGES


@<TRIPOS>ATOM
      1 C1         -9.5724    4.6019   60.2932 C.3     1  ZINC000866034032   -0.1300
      2 C2         -9.7571    3.2929   59.5230 C.3     1  ZINC000866034032   -0.0800
      3 C3         -8.5824    2.9814   58.5934 C.3     1  ZINC000866034032   -0.1300
      4 C4        -10.1676    2.1098   60.4133 C.3     1  ZINC000866034032    0.1400
      5 H5         -9.8699    2.2255   61.4555 H       1  ZINC000866034032    0.1100
      6 N6         -9.7985    0.8049   59.8590 N.am    1  ZINC000866034032   -0.7000
      7 C7         -9.5274   -0.2255   60.6844 C.2     1  ZINC000866034032    0.5100
      8 O8         -9.5877   -0.0721   61.8859 O.2     1  ZINC000866034032   -0.5300
      9 C9         -9.1494   -1.5683   60.1143 C.3     1  ZINC000866034032   -0.1100
     10 C10       -10.3455   -2.1783   59.4299 C.ar    1  ZINC000866034032   -0.0500
     11 C11       -10.2118   -2.7359   58.1722 C.ar    1  ZINC000866034032   -0.0500
     12 C12       -11.3087   -3.2952   57.5438 C.ar    1  ZINC000866034032   -0.0900
     13 C13       -12.5399   -3.2972   58.1738 C.ar    1  ZINC000866034032   -0.0500
     14 Br14      -14.0406   -4.0626   57.3150 Br      1  ZINC000866034032    0.0200
     15 C15       -12.6731   -2.7392   59.4328 C.ar    1  ZINC000866034032   -0.0200
     16 N16       -13.9903   -2.7414   60.1077 N.pl3   1  ZINC000866034032    0.0200
     17 O17       -14.1074   -2.2502   61.2162 O.2     1  ZINC000866034032   -0.1600
     18 O18       -14.9571   -3.2344   59.5548 O.2     1  ZINC000866034032   -0.1300
     19 C19       -11.5748   -2.1850   60.0624 C.ar    1  ZINC000866034032   -0.0300
     20 C20       -11.6303    2.5006   60.1458 C.3     1  ZINC000866034032   -0.1500
     21 H21       -12.1016    3.1478   60.8855 H       1  ZINC000866034032    0.1200
     22 C22       -12.4908    1.3113   59.6640 C.3     1  ZINC000866034032   -0.1400
     23 C23       -12.4159    1.3911   58.1234 C.3     1  ZINC000866034032    0.0500
     24 O24       -11.1893    2.1023   57.8500 O.3     1  ZINC000866034032   -0.3600
     25 C25       -11.1278    3.1706   58.8413 C.3     1  ZINC000866034032    0.0600
     26 H26       -11.6139    4.1002   58.5450 H       1  ZINC000866034032    0.1000
     27 H27       -10.4955    4.8481   60.8180 H       1  ZINC000866034032    0.0600
     28 H28        -8.7635    4.4878   61.0148 H       1  ZINC000866034032    0.0700
     29 H29        -9.3265    5.4024   59.5955 H       1  ZINC000866034032    0.0700
     30 H30        -7.7054    2.7275   59.1888 H       1  ZINC000866034032    0.0600
     31 H31        -8.8411    2.1399   57.9506 H       1  ZINC000866034032    0.0600
     32 H32        -8.3640    3.8546   57.9788 H       1  ZINC000866034032    0.0600
     33 H33        -9.7491    0.6825   58.8980 H       1  ZINC000866034032    0.4100
     34 H34        -8.3427   -1.4423   59.3920 H       1  ZINC000866034032    0.1100
     35 H35        -8.8174   -2.2243   60.9190 H       1  ZINC000866034032    0.1200
     36 H36        -9.2503   -2.7343   57.6803 H       1  ZINC000866034032    0.1500
     37 H37       -11.2044   -3.7303   56.5608 H       1  ZINC000866034032    0.1600
     38 H38       -11.6786   -1.7498   61.0454 H       1  ZINC000866034032    0.1600
     39 H39       -12.0724    0.3692   60.0183 H       1  ZINC000866034032    0.0800
     40 H40       -13.5209    1.4237   60.0025 H       1  ZINC000866034032    0.0800
     41 H41       -12.3784    0.3905   57.6929 H       1  ZINC000866034032    0.0900
     42 H42       -13.2700    1.9426   57.7301 H       1  ZINC000866034032    0.0600
@<TRIPOS>BOND
     1     1     2    1
     2     1    27    1
     3     1    28    1
     4     1    29    1
     5     2    25    1
     6     2     3    1
     7     2     4    1
     8     3    30    1
     9     3    31    1
    10     3    32    1
    11     4     5    1
    12     4     6    1
    13     4    20    1
    14     6     7   am
    15     6    33    1
    16     7     8    2
    17     7     9    1
    18     9    10    1
    19     9    34    1
    20     9    35    1
    21    10    19   ar
    22    10    11   ar
    23    11    12   ar
    24    11    36    1
    25    12    13   ar
    26    12    37    1
    27    13    14    1
    28    13    15   ar
    29    15    16    1
    30    15    19   ar
    31    16    17    2
    32    16    18    2
    33    19    38    1
    34    20    21    1
    35    20    25    1
    36    20    22    1
    37    22    23    1
    38    22    39    1
    39    22    40    1
    40    23    24    1
    41    23    41    1
    42    23    42    1
    43    24    25    1
    44    25    26    1
@<TRIPOS>SUBSTRUCTURE
     1 ZINC000866034032        1 TEMP              0 ****  ****    0 ROOT


##########                                Name:    ZINC000534799364
##########                DOCK_Rotatable_Bonds:                   4
##########                         Heavy_Atoms:                  29
##########                    Molecular_Weight:             391.491
##########                DOCK_Rotatable_Bonds:                   4
##########                       Formal_Charge:           0.0199998
##########                     HBond_Acceptors:                   6
##########                        HBond_Donors:                   0
##########                         Heavy_Atoms:                  29
##########                          Grid_Score:          -27.889214
##########                     Grid_vdw_energy:          -27.978102
##########                      Grid_es_energy:            0.088888
##########           Internal_energy_repulsive:           37.690285

@<TRIPOS>MOLECULE
ZINC000534799364
 55 59 1 0 0
SMALL
USER_CHARGES


@<TRIPOS>ATOM
      1 C1         -9.1116    3.4462   57.4136 C.3     1  ZINC000534799364   -0.1100
      2 C2         -8.8133    4.3322   58.5956 C.ar    1  ZINC000534799364   -0.0200
      3 C3         -8.0421    5.4734   58.4502 C.ar    1  ZINC000534799364   -0.1700
      4 C4         -7.7887    6.2629   59.5568 C.ar    1  ZINC000534799364    0.1000
      5 N5         -8.2702    5.9432   60.7419 N.ar    1  ZINC000534799364   -0.4800
      6 C6         -9.0084    4.8665   60.9244 C.ar    1  ZINC000534799364    0.0800
      7 C7         -9.3113    4.0268   59.8603 C.ar    1  ZINC000534799364    0.0300
      8 N8        -10.0943    2.8867   60.0575 N.3     1  ZINC000534799364   -0.5000
      9 C9        -11.5113    3.1679   59.7879 C.3     1  ZINC000534799364    0.0600
     10 C10       -12.3220    1.8785   59.9374 C.3     1  ZINC000534799364    0.0600
     11 N11       -12.1430    1.3449   61.2949 N.3     1  ZINC000534799364   -0.5300
     12 C12       -12.9664    0.1462   61.5022 C.3     1  ZINC000534799364    0.1400
     13 C13       -12.5674   -0.9151   60.5094 C.2     1  ZINC000534799364    0.1100
     14 N14       -11.3426   -1.2373   60.1831 N.2     1  ZINC000534799364   -0.2800
     15 N15       -11.3982   -2.2642   59.2331 N.pl3   1  ZINC000534799364   -0.3100
     16 C16       -10.2982   -2.8898   58.6286 C.ar    1  ZINC000534799364    0.1500
     17 C17       -10.3403   -3.2196   57.2807 C.ar    1  ZINC000534799364   -0.1000
     18 C18        -9.2561   -3.8357   56.6873 C.ar    1  ZINC000534799364   -0.1300
     19 C19        -8.1274   -4.1244   57.4358 C.ar    1  ZINC000534799364    0.1000
     20 F20        -7.0676   -4.7267   56.8535 F       1  ZINC000534799364   -0.1300
     21 C21        -8.0835   -3.7961   58.7805 C.ar    1  ZINC000534799364   -0.1300
     22 C22        -9.1636   -3.1748   59.3761 C.ar    1  ZINC000534799364   -0.0800
     23 C23       -12.7028   -2.5466   59.0011 C.2     1  ZINC000534799364    0.0500
     24 C24       -13.4455   -1.7306   59.7817 C.2     1  ZINC000534799364   -0.2200
     25 C25       -14.9195   -1.9997   59.5669 C.3     1  ZINC000534799364   -0.0400
     26 C26       -14.9935   -2.7860   58.2399 C.3     1  ZINC000534799364   -0.1200
     27 C27       -13.5995   -3.4506   58.1836 C.3     1  ZINC000534799364   -0.0500
     28 C28       -10.7260    1.0637   61.5645 C.3     1  ZINC000534799364    0.0600
     29 C29        -9.9153    2.3532   61.4150 C.3     1  ZINC000534799364    0.0600
     30 H30       -10.0742    3.7246   56.9847 H       1  ZINC000534799364    0.0800
     31 H31        -8.3307    3.5670   56.6628 H       1  ZINC000534799364    0.0600
     32 H32        -9.1456    2.4063   57.7385 H       1  ZINC000534799364    0.0800
     33 H33        -7.6429    5.7433   57.4837 H       1  ZINC000534799364    0.1400
     34 H34        -7.1876    7.1536   59.4489 H       1  ZINC000534799364    0.1600
     35 H35        -9.3849    4.6372   61.9103 H       1  ZINC000534799364    0.1500
     36 H36       -11.8759    3.9110   60.4972 H       1  ZINC000534799364    0.0500
     37 H37       -11.6194    3.5499   58.7727 H       1  ZINC000534799364    0.0800
     38 H38       -13.3774    2.0905   59.7662 H       1  ZINC000534799364    0.0900
     39 H39       -11.9755    1.1447   59.2096 H       1  ZINC000534799364    0.0500
     40 H40       -12.8148   -0.2281   62.5147 H       1  ZINC000534799364    0.1000
     41 H41       -14.0173    0.3986   61.3617 H       1  ZINC000534799364    0.0500
     42 H42       -11.2206   -2.9949   56.6968 H       1  ZINC000534799364    0.1400
     43 H43        -9.2887   -4.0927   55.6388 H       1  ZINC000534799364    0.1500
     44 H44        -7.2025   -4.0225   59.3628 H       1  ZINC000534799364    0.1500
     45 H45        -9.1289   -2.9187   60.4247 H       1  ZINC000534799364    0.1400
     46 H46       -15.3181   -2.5994   60.3852 H       1  ZINC000534799364    0.0800
     47 H47       -15.4674   -1.0612   59.4823 H       1  ZINC000534799364    0.0700
     48 H48       -15.7809   -3.5387   58.2767 H       1  ZINC000534799364    0.0800
     49 H49       -15.1401   -2.1121   57.3958 H       1  ZINC000534799364    0.0800
     50 H50       -13.2451   -3.5011   57.1540 H       1  ZINC000534799364    0.0800
     51 H51       -13.6374   -4.4482   58.6213 H       1  ZINC000534799364    0.0900
     52 H52       -10.6178    0.6817   62.5797 H       1  ZINC000534799364    0.0900
     53 H53       -10.3614    0.3206   60.8553 H       1  ZINC000534799364    0.0500
     54 H54        -8.8599    2.1411   61.5862 H       1  ZINC000534799364    0.0800
     55 H55       -10.2618    3.0870   62.1427 H       1  ZINC000534799364    0.0500
@<TRIPOS>BOND
     1     1     2    1
     2     1    30    1
     3     1    31    1
     4     1    32    1
     5     2     7   ar
     6     2     3   ar
     7     3     4   ar
     8     3    33    1
     9     4     5   ar
    10     4    34    1
    11     5     6   ar
    12     6     7   ar
    13     6    35    1
    14     7     8    1
    15     8    29    1
    16     8     9    1
    17     9    10    1
    18     9    36    1
    19     9    37    1
    20    10    11    1
    21    10    38    1
    22    10    39    1
    23    11    12    1
    24    11    28    1
    25    12    13    1
    26    12    40    1
    27    12    41    1
    28    13    24    1
    29    13    14    2
    30    14    15    1
    31    15    16    1
    32    15    23    1
    33    16    22   ar
    34    16    17   ar
    35    17    18   ar
    36    17    42    1
    37    18    19   ar
    38    18    43    1
    39    19    20    1
    40    19    21   ar
    41    21    22   ar
    42    21    44    1
    43    22    45    1
    44    23    27    1
    45    23    24    2
    46    24    25    1
    47    25    26    1
    48    25    46    1
    49    25    47    1
    50    26    27    1
    51    26    48    1
    52    26    49    1
    53    27    50    1
    54    27    51    1
    55    28    29    1
    56    28    52    1
    57    28    53    1
    58    29    54    1
    59    29    55    1
@<TRIPOS>SUBSTRUCTURE
     1 ZINC000534799364        1 TEMP              0 ****  ****    0 ROOT


##########                                Name:    ZINC001400108193
##########                DOCK_Rotatable_Bonds:                   9
##########                         Heavy_Atoms:                  25
##########                    Molecular_Weight:              344.41
##########                DOCK_Rotatable_Bonds:                   9
##########                       Formal_Charge:           0.0200001
##########                     HBond_Acceptors:                   6
##########                        HBond_Donors:                   2
##########                         Heavy_Atoms:                  25
##########                          Grid_Score:          -27.882385
##########                     Grid_vdw_energy:          -26.756203
##########                      Grid_es_energy:           -1.126182
##########           Internal_energy_repulsive:            7.357663

@<TRIPOS>MOLECULE
ZINC001400108193
 49 50 1 0 0
SMALL
USER_CHARGES


@<TRIPOS>ATOM
      1 C1        -10.2352    5.0060   60.6067 C.3     1  ZINC001400108193   -0.0800
      2 C2         -9.9126    3.6863   61.2588 C.2     1  ZINC001400108193   -0.0100
      3 C3         -9.8774    2.4985   60.6357 C.2     1  ZINC001400108193   -0.1600
      4 C4         -9.5216    1.5119   61.6661 C.2     1  ZINC001400108193   -0.2300
      5 C5         -9.3553    0.0584   61.4881 C.2     1  ZINC001400108193    0.5900
      6 O6         -9.1036   -0.6467   62.4465 O.2     1  ZINC001400108193   -0.5300
      7 N7         -9.4824   -0.4894   60.2633 N.am    1  ZINC001400108193   -0.7300
      8 C8         -9.3154   -1.9341   60.0861 C.3     1  ZINC001400108193    0.1100
      9 C9        -10.2400   -2.4210   58.9685 C.3     1  ZINC001400108193    0.1300
     10 H10       -10.1650   -1.7469   58.1154 H       1  ZINC001400108193    0.1000
     11 C11        -9.8263   -3.8311   58.5424 C.3     1  ZINC001400108193   -0.1600
     12 N12       -11.6223   -2.4433   59.4533 N.am    1  ZINC001400108193   -0.7300
     13 C13       -12.6417   -2.2585   58.5913 C.2     1  ZINC001400108193    0.5200
     14 O14       -12.4148   -2.0754   57.4141 O.2     1  ZINC001400108193   -0.5100
     15 C15       -14.0636   -2.2795   59.0902 C.3     1  ZINC001400108193    0.0700
     16 H16       -14.6393   -1.5075   58.5797 H       1  ZINC001400108193    0.1000
     17 C17       -14.6834   -3.6493   58.8065 C.3     1  ZINC001400108193   -0.1800
     18 O18       -14.0784   -2.0323   60.4976 O.3     1  ZINC001400108193   -0.2800
     19 C19       -14.2290   -0.7417   60.8957 C.ar    1  ZINC001400108193    0.1200
     20 C20       -13.2512   -0.1351   61.6707 C.ar    1  ZINC001400108193   -0.2100
     21 C21       -13.4065    1.1771   62.0737 C.ar    1  ZINC001400108193   -0.0800
     22 C22       -14.5375    1.8841   61.7098 C.ar    1  ZINC001400108193   -0.1200
     23 C23       -14.7072    3.3136   62.1561 C.3     1  ZINC001400108193   -0.1100
     24 C24       -15.5110    1.2834   60.9330 C.ar    1  ZINC001400108193   -0.0800
     25 C25       -15.3605   -0.0285   60.5274 C.ar    1  ZINC001400108193   -0.1400
     26 C26        -9.3834    2.2223   62.8224 C.2     1  ZINC001400108193    0.0200
     27 O27        -9.6144    3.5114   62.5557 O.3     1  ZINC001400108193   -0.1700
     28 H28       -11.3092    5.1844   60.6597 H       1  ZINC001400108193    0.0900
     29 H29        -9.7079    5.8064   61.1257 H       1  ZINC001400108193    0.0800
     30 H30        -9.9220    4.9817   59.5629 H       1  ZINC001400108193    0.0900
     31 H31       -10.0707    2.3064   59.5907 H       1  ZINC001400108193    0.1600
     32 H32        -9.6843    0.0729   59.4991 H       1  ZINC001400108193    0.4000
     33 H33        -9.5675   -2.4456   61.0150 H       1  ZINC001400108193    0.0800
     34 H34        -8.2804   -2.1504   59.8215 H       1  ZINC001400108193    0.0900
     35 H35       -10.4849   -4.1779   57.7462 H       1  ZINC001400108193    0.0700
     36 H36        -8.7977   -3.8145   58.1817 H       1  ZINC001400108193    0.0700
     37 H37        -9.9012   -4.5052   59.3956 H       1  ZINC001400108193    0.0600
     38 H38       -11.8038   -2.5909   60.3947 H       1  ZINC001400108193    0.4000
     39 H39       -14.6721   -3.8380   57.7331 H       1  ZINC001400108193    0.0800
     40 H40       -14.1077   -4.4213   59.3171 H       1  ZINC001400108193    0.0800
     41 H41       -15.7118   -3.6646   59.1674 H       1  ZINC001400108193    0.0800
     42 H42       -12.3697   -0.6884   61.9590 H       1  ZINC001400108193    0.1300
     43 H43       -12.6458    1.6497   62.6773 H       1  ZINC001400108193    0.1300
     44 H44       -14.2725    3.9806   61.4117 H       1  ZINC001400108193    0.0700
     45 H45       -15.7684    3.5358   62.2675 H       1  ZINC001400108193    0.0700
     46 H46       -14.2034    3.4579   63.1118 H       1  ZINC001400108193    0.0700
     47 H47       -16.3917    1.8391   60.6466 H       1  ZINC001400108193    0.1300
     48 H48       -16.1229   -0.4984   59.9238 H       1  ZINC001400108193    0.1300
     49 H49        -9.1280    1.8129   63.7887 H       1  ZINC001400108193    0.2100
@<TRIPOS>BOND
     1     1     2    1
     2     1    28    1
     3     1    29    1
     4     1    30    1
     5     2    27    1
     6     2     3    2
     7     3     4    1
     8     3    31    1
     9     4     5    1
    10     4    26    2
    11     5     6    2
    12     5     7   am
    13     7     8    1
    14     7    32    1
    15     8     9    1
    16     8    33    1
    17     8    34    1
    18     9    10    1
    19     9    11    1
    20     9    12    1
    21    11    35    1
    22    11    36    1
    23    11    37    1
    24    12    13   am
    25    12    38    1
    26    13    14    2
    27    13    15    1
    28    15    16    1
    29    15    17    1
    30    15    18    1
    31    17    39    1
    32    17    40    1
    33    17    41    1
    34    18    19    1
    35    19    25   ar
    36    19    20   ar
    37    20    21   ar
    38    20    42    1
    39    21    22   ar
    40    21    43    1
    41    22    23    1
    42    22    24   ar
    43    23    44    1
    44    23    45    1
    45    23    46    1
    46    24    25   ar
    47    24    47    1
    48    25    48    1
    49    26    27    1
    50    26    49    1
@<TRIPOS>SUBSTRUCTURE
     1 ZINC001400108193        1 TEMP              0 ****  ****    0 ROOT


##########                                Name:    ZINC000962855438
##########                DOCK_Rotatable_Bonds:                   7
##########                         Heavy_Atoms:                  27
##########                    Molecular_Weight:             370.448
##########                DOCK_Rotatable_Bonds:                   7
##########                       Formal_Charge:           0.0300005
##########                     HBond_Acceptors:                   6
##########                        HBond_Donors:                   2
##########                         Heavy_Atoms:                  27
##########                          Grid_Score:          -27.871277
##########                     Grid_vdw_energy:          -24.538485
##########                      Grid_es_energy:           -3.332793
##########           Internal_energy_repulsive:           11.075529

@<TRIPOS>MOLECULE
ZINC000962855438
 53 56 1 0 0
SMALL
USER_CHARGES


@<TRIPOS>ATOM
      1 C1         -6.5448    4.2982   55.7683 C.3     1  ZINC000962855438   -0.1100
      2 C2         -7.9086    4.3351   56.4086 C.2     1  ZINC000962855438   -0.1700
      3 C3         -8.1458    3.6260   57.6753 C.2     1  ZINC000962855438    0.5600
      4 O4         -7.2730    2.9270   58.1535 O.2     1  ZINC000962855438   -0.5400
      5 N5         -9.3304    3.7508   58.3059 N.am    1  ZINC000962855438   -0.7100
      6 C6         -9.5673    3.0431   59.5666 C.3     1  ZINC000962855438    0.1500
      7 H7         -8.6378    2.9166   60.1217 H       1  ZINC000962855438    0.1200
      8 C8        -10.2548    1.6777   59.3161 C.3     1  ZINC000962855438    0.1000
      9 N9        -10.9638    1.3762   60.5730 N.am    1  ZINC000962855438   -0.6100
     10 C10       -11.3093    0.1469   61.0045 C.2     1  ZINC000962855438    0.5800
     11 O11       -11.8941    0.0161   62.0624 O.2     1  ZINC000962855438   -0.5200
     12 C12       -10.9777   -1.0398   60.1931 C.ar    1  ZINC000962855438   -0.1500
     13 C13        -9.6897   -1.5739   60.2306 C.ar    1  ZINC000962855438   -0.0600
     14 C14        -9.3766   -2.6821   59.4730 C.ar    1  ZINC000962855438   -0.1500
     15 C15       -10.3423   -3.2661   58.6685 C.ar    1  ZINC000962855438   -0.0500
     16 C16       -11.6162   -2.7453   58.6217 C.ar    1  ZINC000962855438   -0.1800
     17 C17       -11.9615   -1.6380   59.3849 C.ar    1  ZINC000962855438    0.1600
     18 O18       -13.2663   -1.3036   59.2076 O.3     1  ZINC000962855438   -0.2800
     19 C19       -13.7454   -1.8935   57.9870 C.3     1  ZINC000962855438    0.0700
     20 H20       -13.5992   -1.2149   57.1467 H       1  ZINC000962855438    0.0900
     21 C21       -15.2191   -2.2843   58.1156 C.3     1  ZINC000962855438   -0.1500
     22 C22       -12.8536   -3.1516   57.8444 C.3     1  ZINC000962855438   -0.1100
     23 C23       -11.2310    2.6383   61.2781 C.3     1  ZINC000962855438    0.0700
     24 C24       -10.6320    3.7764   60.4244 C.3     1  ZINC000962855438    0.0900
     25 H25       -10.1654    4.5299   61.0589 H       1  ZINC000962855438    0.0900
     26 O26       -11.6344    4.3672   59.5946 O.3     1  ZINC000962855438   -0.5600
     27 C27        -8.8975    5.0090   55.8284 C.2     1  ZINC000962855438   -0.0600
     28 C28       -10.3540    5.2918   56.1299 C.3     1  ZINC000962855438   -0.1000
     29 C29       -10.5607    5.4678   54.6173 C.3     1  ZINC000962855438   -0.1400
     30 C30        -9.0676    5.8412   54.5751 C.3     1  ZINC000962855438   -0.1100
     31 H31        -6.4843    3.4459   55.0915 H       1  ZINC000962855438    0.0700
     32 H32        -6.3812    5.2191   55.2085 H       1  ZINC000962855438    0.0700
     33 H33        -5.7827    4.2028   56.5417 H       1  ZINC000962855438    0.0700
     34 H34       -10.0261    4.3092   57.9250 H       1  ZINC000962855438    0.4100
     35 H35       -10.9622    1.7549   58.4906 H       1  ZINC000962855438    0.0800
     36 H36        -9.5094    0.9102   59.1077 H       1  ZINC000962855438    0.0900
     37 H37        -8.9355   -1.1178   60.8547 H       1  ZINC000962855438    0.1400
     38 H38        -8.3791   -3.0948   59.5060 H       1  ZINC000962855438    0.1400
     39 H39       -10.0944   -4.1337   58.0750 H       1  ZINC000962855438    0.1300
     40 H40       -15.8159   -1.3928   58.3082 H       1  ZINC000962855438    0.0700
     41 H41       -15.5530   -2.7520   57.1894 H       1  ZINC000962855438    0.0800
     42 H42       -15.3381   -2.9866   58.9406 H       1  ZINC000962855438    0.0700
     43 H43       -12.6083   -3.3388   56.7991 H       1  ZINC000962855438    0.1000
     44 H44       -13.3331   -4.0218   58.2925 H       1  ZINC000962855438    0.1000
     45 H45       -12.3061    2.7820   61.3864 H       1  ZINC000962855438    0.0800
     46 H46       -10.7564    2.6225   62.2592 H       1  ZINC000962855438    0.0800
     47 H47       -11.2914    5.0158   58.9648 H       1  ZINC000962855438    0.3900
     48 H48       -10.8869    4.4367   56.5458 H       1  ZINC000962855438    0.0900
     49 H49       -10.5112    6.2071   56.7005 H       1  ZINC000962855438    0.1000
     50 H50       -10.8021    4.5420   54.0952 H       1  ZINC000962855438    0.0900
     51 H51       -11.2256    6.2913   54.3567 H       1  ZINC000962855438    0.0800
     52 H52        -8.8800    6.9046   54.7245 H       1  ZINC000962855438    0.1000
     53 H53        -8.5413    5.4357   53.7110 H       1  ZINC000962855438    0.0800
@<TRIPOS>BOND
     1     1     2    1
     2     1    31    1
     3     1    32    1
     4     1    33    1
     5     2     3    1
     6     2    27    2
     7     3     4    2
     8     3     5   am
     9     5     6    1
    10     5    34    1
    11     6     7    1
    12     6    24    1
    13     6     8    1
    14     8     9    1
    15     8    35    1
    16     8    36    1
    17     9    10   am
    18     9    23    1
    19    10    11    2
    20    10    12    1
    21    12    17   ar
    22    12    13   ar
    23    13    14   ar
    24    13    37    1
    25    14    15   ar
    26    14    38    1
    27    15    16   ar
    28    15    39    1
    29    16    22    1
    30    16    17   ar
    31    17    18    1
    32    18    19    1
    33    19    20    1
    34    19    21    1
    35    19    22    1
    36    21    40    1
    37    21    41    1
    38    21    42    1
    39    22    43    1
    40    22    44    1
    41    23    24    1
    42    23    45    1
    43    23    46    1
    44    24    25    1
    45    24    26    1
    46    26    47    1
    47    27    30    1
    48    27    28    1
    49    28    29    1
    50    28    48    1
    51    28    49    1
    52    29    30    1
    53    29    50    1
    54    29    51    1
    55    30    52    1
    56    30    53    1
@<TRIPOS>SUBSTRUCTURE
     1 ZINC000962855438        1 TEMP              0 ****  ****    0 ROOT


##########                                Name:    ZINC000970996691
##########                DOCK_Rotatable_Bonds:                   7
##########                         Heavy_Atoms:                  24
##########                    Molecular_Weight:             334.462
##########                DOCK_Rotatable_Bonds:                   7
##########                       Formal_Charge:          -0.0199999
##########                     HBond_Acceptors:                   6
##########                        HBond_Donors:                   0
##########                         Heavy_Atoms:                  24
##########                          Grid_Score:          -27.871094
##########                     Grid_vdw_energy:          -27.467566
##########                      Grid_es_energy:           -0.403529
##########           Internal_energy_repulsive:           24.874763

@<TRIPOS>MOLECULE
ZINC000970996691
 54 56 1 0 0
SMALL
USER_CHARGES


@<TRIPOS>ATOM
      1 C1         -7.1308   -3.8784   55.6570 C.3     1  ZINC000970996691   -0.1500
      2 C2         -6.5591   -4.4397   56.9604 C.3     1  ZINC000970996691   -0.1200
      3 C3         -6.9633   -3.5348   58.1261 C.3     1  ZINC000970996691   -0.0300
      4 C4         -8.4661   -3.4897   58.2291 C.2     1  ZINC000970996691    0.1800
      5 N5         -9.1901   -2.4809   58.6508 N.2     1  ZINC000970996691   -0.4700
      6 C6        -10.4677   -2.8928   58.5685 C.2     1  ZINC000970996691    0.1800
      7 C7        -11.6889   -2.0916   58.9399 C.3     1  ZINC000970996691    0.1500
      8 N8        -12.8967   -2.8692   58.6328 N.3     1  ZINC000970996691   -0.5200
      9 C9        -13.8419   -2.8395   59.7569 C.3     1  ZINC000970996691    0.0200
     10 C10       -13.5319   -2.3893   57.3981 C.3     1  ZINC000970996691    0.0700
     11 H11       -14.3287   -3.0633   57.0838 H       1  ZINC000970996691    0.0600
     12 C12       -14.0639   -0.9424   57.5725 C.3     1  ZINC000970996691   -0.1300
     13 C13       -14.0408   -0.3896   56.1319 C.3     1  ZINC000970996691    0.1000
     14 N14       -13.0767   -1.1968   55.3701 N.am    1  ZINC000970996691   -0.6200
     15 C15       -12.7816   -1.0426   54.0641 C.2     1  ZINC000970996691    0.5300
     16 O16       -11.9661   -1.7691   53.5367 O.2     1  ZINC000970996691   -0.5300
     17 C17       -13.4649    0.0327   53.2592 C.3     1  ZINC000970996691   -0.1000
     18 C18       -12.6421    1.3208   53.3265 C.3     1  ZINC000970996691   -0.1100
     19 C19       -13.3360    2.4125   52.5092 C.3     1  ZINC000970996691   -0.1200
     20 C20       -13.4566    1.9600   51.0527 C.3     1  ZINC000970996691   -0.1200
     21 C21       -14.2794    0.6718   50.9852 C.3     1  ZINC000970996691   -0.1200
     22 C22       -13.5856   -0.4198   51.8025 C.3     1  ZINC000970996691   -0.1000
     23 C23       -12.4852   -2.2032   56.2714 C.3     1  ZINC000970996691    0.1200
     24 N24       -10.4559   -4.1085   58.1096 N.2     1  ZINC000970996691   -0.3800
     25 O25        -9.3161   -4.4680   57.9026 O.3     1  ZINC000970996691    0.0800
     26 H26        -8.2179   -3.8373   55.7250 H       1  ZINC000970996691    0.0600
     27 H27        -6.7389   -2.8749   55.4908 H       1  ZINC000970996691    0.0600
     28 H28        -6.8428   -4.5230   54.8265 H       1  ZINC000970996691    0.0600
     29 H29        -6.9509   -5.4433   57.1266 H       1  ZINC000970996691    0.0700
     30 H30        -5.4720   -4.4808   56.8924 H       1  ZINC000970996691    0.0700
     31 H31        -6.5473   -3.9291   59.0532 H       1  ZINC000970996691    0.1100
     32 H32        -6.5805   -2.5288   57.9548 H       1  ZINC000970996691    0.1000
     33 H33       -11.6641   -1.8645   60.0057 H       1  ZINC000970996691    0.0700
     34 H34       -11.7005   -1.1621   58.3705 H       1  ZINC000970996691    0.1100
     35 H35       -14.1321   -1.8088   59.9605 H       1  ZINC000970996691    0.0300
     36 H36       -14.7269   -3.4228   59.5029 H       1  ZINC000970996691    0.0800
     37 H37       -13.3678   -3.2650   60.6416 H       1  ZINC000970996691    0.0700
     38 H38       -15.0803   -0.9500   57.9664 H       1  ZINC000970996691    0.0800
     39 H39       -13.4033   -0.3637   58.2184 H       1  ZINC000970996691    0.0900
     40 H40       -15.0313   -0.4762   55.6856 H       1  ZINC000970996691    0.0700
     41 H41       -13.7256    0.6539   56.1403 H       1  ZINC000970996691    0.0700
     42 H42       -14.4593    0.2149   53.6666 H       1  ZINC000970996691    0.0900
     43 H43       -12.5562    1.6431   54.3643 H       1  ZINC000970996691    0.0700
     44 H44       -11.6477    1.1386   52.9191 H       1  ZINC000970996691    0.0700
     45 H45       -14.3303    2.5947   52.9167 H       1  ZINC000970996691    0.0600
     46 H46       -12.7498    3.3302   52.5573 H       1  ZINC000970996691    0.0700
     47 H47       -13.9509    2.7377   50.4704 H       1  ZINC000970996691    0.0600
     48 H48       -12.4622    1.7777   50.6453 H       1  ZINC000970996691    0.0600
     49 H49       -15.2738    0.8541   51.3927 H       1  ZINC000970996691    0.0600
     50 H50       -14.3654    0.3495   49.9476 H       1  ZINC000970996691    0.0700
     51 H51       -12.5912   -0.6021   51.3951 H       1  ZINC000970996691    0.0800
     52 H52       -14.1718   -1.3376   51.7545 H       1  ZINC000970996691    0.0600
     53 H53       -11.5454   -1.8369   56.6843 H       1  ZINC000970996691    0.0800
     54 H54       -12.3271   -3.1418   55.7402 H       1  ZINC000970996691    0.0800
@<TRIPOS>BOND
     1     1     2    1
     2     1    26    1
     3     1    27    1
     4     1    28    1
     5     2     3    1
     6     2    29    1
     7     2    30    1
     8     3     4    1
     9     3    31    1
    10     3    32    1
    11     4    25    1
    12     4     5    2
    13     5     6    1
    14     6     7    1
    15     6    24    2
    16     7     8    1
    17     7    33    1
    18     7    34    1
    19     8     9    1
    20     8    10    1
    21     9    35    1
    22     9    36    1
    23     9    37    1
    24    10    11    1
    25    10    23    1
    26    10    12    1
    27    12    13    1
    28    12    38    1
    29    12    39    1
    30    13    14    1
    31    13    40    1
    32    13    41    1
    33    14    15   am
    34    14    23    1
    35    15    16    2
    36    15    17    1
    37    17    22    1
    38    17    18    1
    39    17    42    1
    40    18    19    1
    41    18    43    1
    42    18    44    1
    43    19    20    1
    44    19    45    1
    45    19    46    1
    46    20    21    1
    47    20    47    1
    48    20    48    1
    49    21    22    1
    50    21    49    1
    51    21    50    1
    52    22    51    1
    53    22    52    1
    54    23    53    1
    55    23    54    1
    56    24    25    1
@<TRIPOS>SUBSTRUCTURE
     1 ZINC000970996691        1 TEMP              0 ****  ****    0 ROOT


##########                                Name:    ZINC000053543817
##########                DOCK_Rotatable_Bonds:                   7
##########                         Heavy_Atoms:                  25
##########                    Molecular_Weight:             350.458
##########                DOCK_Rotatable_Bonds:                   7
##########                       Formal_Charge:           0.0199998
##########                     HBond_Acceptors:                   6
##########                        HBond_Donors:                   2
##########                         Heavy_Atoms:                  25
##########                          Grid_Score:          -27.848007
##########                     Grid_vdw_energy:          -26.813528
##########                      Grid_es_energy:           -1.034479
##########           Internal_energy_repulsive:           58.596909

@<TRIPOS>MOLECULE
ZINC000053543817
 55 56 1 0 0
SMALL
USER_CHARGES


@<TRIPOS>ATOM
      1 C1         -7.1426    0.5166   65.8591 C.3     1  ZINC000053543817   -0.0700
      2 C2         -8.2722    1.0525   65.0176 C.2     1  ZINC000053543817   -0.0200
      3 C3         -9.0730    0.3219   64.2168 C.2     1  ZINC000053543817   -0.1800
      4 C4         -9.9805    1.2201   63.6271 C.2     1  ZINC000053543817   -0.1900
      5 C5         -9.6871    2.4493   64.0986 C.2     1  ZINC000053543817    0.0000
      6 C6        -10.4350    3.7010   63.7089 C.3     1  ZINC000053543817   -0.0300
      7 C7        -11.7688    3.2907   63.0734 C.3     1  ZINC000053543817   -0.0500
      8 C8        -12.6874    2.7065   64.1486 C.3     1  ZINC000053543817   -0.1500
      9 C9        -12.4338    4.5181   62.4469 C.3     1  ZINC000053543817   -0.1400
     10 C10       -11.5178    2.2382   61.9901 C.3     1  ZINC000053543817   -0.1200
     11 C11       -11.0863    0.9215   62.6487 C.3     1  ZINC000053543817    0.2200
     12 H12       -11.9327    0.4795   63.1744 H       1  ZINC000053543817    0.1000
     13 N13       -10.6022   -0.0072   61.6244 N.am    1  ZINC000053543817   -0.7100
     14 C14       -11.4370   -0.9254   61.0986 C.2     1  ZINC000053543817    0.5100
     15 O15       -12.5885   -0.9838   61.4745 O.2     1  ZINC000053543817   -0.5300
     16 C16       -10.9393   -1.8795   60.0436 C.3     1  ZINC000053543817    0.1400
     17 H17       -10.7003   -2.8381   60.5041 H       1  ZINC000053543817    0.1200
     18 C18        -9.6843   -1.3029   59.3855 C.3     1  ZINC000053543817   -0.1600
     19 N19       -11.9787   -2.0709   59.0289 N.am    1  ZINC000053543817   -0.7000
     20 C20       -11.8074   -2.9842   58.0526 C.2     1  ZINC000053543817    0.6600
     21 O21       -10.7902   -3.6477   58.0131 O.2     1  ZINC000053543817   -0.5700
     22 O22       -12.7632   -3.1611   57.1212 O.3     1  ZINC000053543817   -0.3600
     23 C23       -13.8655   -2.2160   57.1200 C.3     1  ZINC000053543817    0.1400
     24 C24       -14.7818   -2.5027   55.9287 C.3     1  ZINC000053543817   -0.1800
     25 C25       -14.6598   -2.3572   58.4200 C.3     1  ZINC000053543817   -0.1400
     26 C26       -13.3163   -0.7921   57.0099 C.3     1  ZINC000053543817   -0.1800
     27 O27        -8.6549    2.3400   64.9434 O.3     1  ZINC000053543817   -0.1700
     28 H28        -6.6757    1.3364   66.4051 H       1  ZINC000053543817    0.0800
     29 H29        -7.5321   -0.2156   66.5664 H       1  ZINC000053543817    0.0800
     30 H30        -6.4031    0.0415   65.2145 H       1  ZINC000053543817    0.0800
     31 H31        -9.0265   -0.7454   64.0585 H       1  ZINC000053543817    0.1400
     32 H32       -10.6225    4.3069   64.5955 H       1  ZINC000053543817    0.0900
     33 H33        -9.8464    4.2706   62.9898 H       1  ZINC000053543817    0.0900
     34 H34       -12.8672    3.4560   64.9192 H       1  ZINC000053543817    0.0600
     35 H35       -13.6356    2.4148   63.6970 H       1  ZINC000053543817    0.0600
     36 H36       -12.2136    1.8325   64.5954 H       1  ZINC000053543817    0.0600
     37 H37       -11.7794    4.9348   61.6813 H       1  ZINC000053543817    0.0600
     38 H38       -13.3820    4.2267   61.9951 H       1  ZINC000053543817    0.0600
     39 H39       -12.6138    5.2671   63.2181 H       1  ZINC000053543817    0.0600
     40 H40       -12.4332    2.0770   61.4208 H       1  ZINC000053543817    0.0800
     41 H41       -10.7302    2.5856   61.3214 H       1  ZINC000053543817    0.0700
     42 H42        -9.6808    0.0388   61.3246 H       1  ZINC000053543817    0.4000
     43 H43        -8.9110   -1.1604   60.1404 H       1  ZINC000053543817    0.0800
     44 H44        -9.3243   -1.9929   58.6224 H       1  ZINC000053543817    0.0800
     45 H45        -9.9233   -0.3443   58.9249 H       1  ZINC000053543817    0.0700
     46 H46       -12.7902   -1.5404   59.0598 H       1  ZINC000053543817    0.4200
     47 H47       -15.1731   -3.5170   56.0071 H       1  ZINC000053543817    0.0600
     48 H48       -15.6093   -1.7931   55.9278 H       1  ZINC000053543817    0.0700
     49 H49       -14.2159   -2.4021   55.0025 H       1  ZINC000053543817    0.0900
     50 H50       -14.0070   -2.1529   59.2686 H       1  ZINC000053543817    0.0700
     51 H51       -15.4873   -1.6476   58.4190 H       1  ZINC000053543817    0.0800
     52 H52       -15.0510   -3.3715   58.4984 H       1  ZINC000053543817    0.0700
     53 H53       -12.7504   -0.6916   56.0838 H       1  ZINC000053543817    0.0900
     54 H54       -14.1437   -0.0826   57.0090 H       1  ZINC000053543817    0.0700
     55 H55       -12.6635   -0.5880   57.8585 H       1  ZINC000053543817    0.0600
@<TRIPOS>BOND
     1     1     2    1
     2     1    28    1
     3     1    29    1
     4     1    30    1
     5     2    27    1
     6     2     3    2
     7     3     4    1
     8     3    31    1
     9     4    11    1
    10     4     5    2
    11     5     6    1
    12     5    27    1
    13     6     7    1
    14     6    32    1
    15     6    33    1
    16     7     8    1
    17     7     9    1
    18     7    10    1
    19     8    34    1
    20     8    35    1
    21     8    36    1
    22     9    37    1
    23     9    38    1
    24     9    39    1
    25    10    11    1
    26    10    40    1
    27    10    41    1
    28    11    12    1
    29    11    13    1
    30    13    14   am
    31    13    42    1
    32    14    15    2
    33    14    16    1
    34    16    17    1
    35    16    18    1
    36    16    19    1
    37    18    43    1
    38    18    44    1
    39    18    45    1
    40    19    20   am
    41    19    46    1
    42    20    21    2
    43    20    22    1
    44    22    23    1
    45    23    24    1
    46    23    25    1
    47    23    26    1
    48    24    47    1
    49    24    48    1
    50    24    49    1
    51    25    50    1
    52    25    51    1
    53    25    52    1
    54    26    53    1
    55    26    54    1
    56    26    55    1
@<TRIPOS>SUBSTRUCTURE
     1 ZINC000053543817        1 TEMP              0 ****  ****    0 ROOT


##########                                Name:    ZINC001078110631
##########                DOCK_Rotatable_Bonds:                   7
##########                         Heavy_Atoms:                  25
##########                    Molecular_Weight:             353.369
##########                DOCK_Rotatable_Bonds:                   7
##########                       Formal_Charge:           0.0100006
##########                     HBond_Acceptors:                   8
##########                        HBond_Donors:                   2
##########                         Heavy_Atoms:                  25
##########                          Grid_Score:          -27.837881
##########                     Grid_vdw_energy:          -27.560341
##########                      Grid_es_energy:           -0.277541
##########           Internal_energy_repulsive:            7.338874

@<TRIPOS>MOLECULE
ZINC001078110631
 46 48 1 0 0
SMALL
USER_CHARGES


@<TRIPOS>ATOM
      1 O1         -9.4364    1.4080   60.5313 O.2     1  ZINC001078110631   -0.5100
      2 C2         -9.5141    0.5313   61.3702 C.2     1  ZINC001078110631    0.5600
      3 N3         -9.9774   -0.6878   61.0300 N.am    1  ZINC001078110631   -0.7200
      4 C4        -10.3933   -0.9547   59.6508 C.3     1  ZINC001078110631    0.1500
      5 H5         -9.7499   -0.4201   58.9519 H       1  ZINC001078110631    0.1200
      6 C6        -11.8668   -0.5424   59.4458 C.3     1  ZINC001078110631    0.0300
      7 N7        -12.4216   -1.5769   58.5352 N.3     1  ZINC001078110631   -0.5000
      8 C8        -13.8868   -1.6294   58.6287 C.3     1  ZINC001078110631    0.0300
      9 C9        -14.4433   -2.4464   57.4610 C.3     1  ZINC001078110631    0.1300
     10 N10       -14.3400   -1.6656   56.2256 N.am    1  ZINC001078110631   -0.6200
     11 C11       -15.3395   -0.6889   55.7774 C.3     1  ZINC001078110631    0.1000
     12 C12       -14.6258    0.1712   54.7110 C.3     1  ZINC001078110631   -0.1300
     13 C13       -13.5341   -0.7987   54.2025 C.3     1  ZINC001078110631   -0.1600
     14 C14       -13.3148   -1.7477   55.3601 C.2     1  ZINC001078110631    0.5200
     15 O15       -12.3570   -2.4811   55.4853 O.2     1  ZINC001078110631   -0.5200
     16 C16       -11.8121   -2.8458   59.0100 C.3     1  ZINC001078110631    0.0000
     17 C17       -10.3547   -2.4697   59.3633 C.3     1  ZINC001078110631    0.1000
     18 H18       -10.0270   -3.0147   60.2486 H       1  ZINC001078110631    0.0700
     19 O19        -9.4889   -2.7487   58.2610 O.3     1  ZINC001078110631   -0.5500
     20 C20        -9.0952    0.8002   62.7594 C.ar    1  ZINC001078110631   -0.1900
     21 C21        -8.3601   -0.1536   63.4674 C.ar    1  ZINC001078110631   -0.0300
     22 C22        -7.9716    0.1025   64.7644 C.ar    1  ZINC001078110631   -0.1700
     23 C23        -8.3084    1.3047   65.3690 C.ar    1  ZINC001078110631    0.1600
     24 F24        -7.9241    1.5487   66.6409 F       1  ZINC001078110631   -0.1200
     25 C25        -9.0369    2.2563   64.6740 C.ar    1  ZINC001078110631   -0.2000
     26 C26        -9.4281    2.0139   63.3712 C.ar    1  ZINC001078110631    0.2000
     27 F27       -10.1384    2.9419   62.6934 F       1  ZINC001078110631   -0.1000
     28 H28       -10.0355   -1.3884   61.6983 H       1  ZINC001078110631    0.4000
     29 H29       -12.3990   -0.5484   60.3970 H       1  ZINC001078110631    0.0500
     30 H30       -11.9251    0.4424   58.9826 H       1  ZINC001078110631    0.1000
     31 H31       -14.1742   -2.0982   59.5698 H       1  ZINC001078110631    0.0400
     32 H32       -14.2898   -0.6175   58.5889 H       1  ZINC001078110631    0.0800
     33 H33       -13.8711   -3.3683   57.3571 H       1  ZINC001078110631    0.0900
     34 H34       -15.4890   -2.6875   57.6520 H       1  ZINC001078110631    0.0800
     35 H35       -16.1960   -1.2003   55.3381 H       1  ZINC001078110631    0.0700
     36 H36       -15.6590   -0.0657   56.6126 H       1  ZINC001078110631    0.0800
     37 H37       -15.3102    0.4437   53.9076 H       1  ZINC001078110631    0.0900
     38 H38       -14.1804    1.0589   55.1601 H       1  ZINC001078110631    0.0800
     39 H39       -13.8834   -1.3387   53.3224 H       1  ZINC001078110631    0.1100
     40 H40       -12.6157   -0.2559   53.9787 H       1  ZINC001078110631    0.1000
     41 H41       -12.3358   -3.2121   59.8929 H       1  ZINC001078110631    0.0600
     42 H42       -11.8292   -3.5952   58.2185 H       1  ZINC001078110631    0.0900
     43 H43        -9.5947   -3.6366   57.8928 H       1  ZINC001078110631    0.3800
     44 H44        -8.0968   -1.0904   62.9991 H       1  ZINC001078110631    0.1500
     45 H45        -7.4035   -0.6350   65.3118 H       1  ZINC001078110631    0.1500
     46 H46        -9.2964    3.1904   65.1499 H       1  ZINC001078110631    0.1600
@<TRIPOS>BOND
     1     1     2    2
     2     2     3   am
     3     2    20    1
     4     3     4    1
     5     3    28    1
     6     4     5    1
     7     4    17    1
     8     4     6    1
     9     6     7    1
    10     6    29    1
    11     6    30    1
    12     7     8    1
    13     7    16    1
    14     8     9    1
    15     8    31    1
    16     8    32    1
    17     9    10    1
    18     9    33    1
    19     9    34    1
    20    10    14   am
    21    10    11    1
    22    11    12    1
    23    11    35    1
    24    11    36    1
    25    12    13    1
    26    12    37    1
    27    12    38    1
    28    13    14    1
    29    13    39    1
    30    13    40    1
    31    14    15    2
    32    16    17    1
    33    16    41    1
    34    16    42    1
    35    17    18    1
    36    17    19    1
    37    19    43    1
    38    20    26   ar
    39    20    21   ar
    40    21    22   ar
    41    21    44    1
    42    22    23   ar
    43    22    45    1
    44    23    24    1
    45    23    25   ar
    46    25    26   ar
    47    25    46    1
    48    26    27    1
@<TRIPOS>SUBSTRUCTURE
     1 ZINC001078110631        1 TEMP              0 ****  ****    0 ROOT


##########                                Name:    ZINC000821442454
##########                DOCK_Rotatable_Bonds:                   6
##########                         Heavy_Atoms:                  26
##########                    Molecular_Weight:             398.873
##########                DOCK_Rotatable_Bonds:                   6
##########                       Formal_Charge:          -0.0399996
##########                     HBond_Acceptors:                  11
##########                        HBond_Donors:                   2
##########                         Heavy_Atoms:                  26
##########                          Grid_Score:          -27.809225
##########                     Grid_vdw_energy:          -27.710627
##########                      Grid_es_energy:           -0.098599
##########           Internal_energy_repulsive:           10.734299

@<TRIPOS>MOLECULE
ZINC000821442454
 45 47 1 0 0
SMALL
USER_CHARGES


@<TRIPOS>ATOM
      1 C1        -12.1952   -1.0457   52.6585 C.3     1  ZINC000821442454   -0.1500
      2 C2        -13.6318   -0.5849   52.4038 C.3     1  ZINC000821442454   -0.6300
      3 S3        -14.1593    0.5189   53.7431 S.o2    1  ZINC000821442454    2.6000
      4 O4        -13.2087    1.5571   53.9371 O.2     1  ZINC000821442454   -0.9500
      5 O5        -15.5467    0.8065   53.6351 O.2     1  ZINC000821442454   -0.9500
      6 N6        -14.0393   -0.4055   55.1119 N.am    1  ZINC000821442454   -1.0000
      7 C7        -14.8182   -1.6437   55.2495 C.3     1  ZINC000821442454    0.1100
      8 C8        -15.6107   -1.5847   56.5592 C.3     1  ZINC000821442454   -0.1300
      9 C9        -14.6508   -1.3136   57.7198 C.3     1  ZINC000821442454   -0.1100
     10 C10       -13.9629    0.0372   57.5103 C.3     1  ZINC000821442454   -0.1200
     11 H11       -14.7159    0.8227   57.4445 H       1  ZINC000821442454    0.1100
     12 C12       -13.0427    0.3185   58.6702 C.2     1  ZINC000821442454    0.5300
     13 O13       -12.7304    1.4605   58.9334 O.2     1  ZINC000821442454   -0.5100
     14 N14       -12.5669   -0.6990   59.4150 N.am    1  ZINC000821442454   -0.6700
     15 C15       -11.7128   -0.4380   60.4915 C.ar    1  ZINC000821442454    0.1800
     16 C16       -12.1327    0.3894   61.5253 C.ar    1  ZINC000821442454   -0.1200
     17 C17       -11.2926    0.6477   62.5881 C.ar    1  ZINC000821442454   -0.0500
     18 C18       -10.0214    0.0783   62.6250 C.ar    1  ZINC000821442454   -0.0300
     19 C19        -9.1162    0.3550   63.7682 C.2     1  ZINC000821442454    0.2200
     20 N20        -9.0284    1.4808   64.4485 N.2     1  ZINC000821442454   -0.2900
     21 N21        -8.1302    1.3222   65.3590 N.pl3   1  ZINC000821442454   -0.2200
     22 N22        -7.6465    0.1321   65.2773 N.2     1  ZINC000821442454   -0.0400
     23 N23        -8.2329   -0.4933   64.3137 N.2     1  ZINC000821442454   -0.2700
     24 C24        -9.6011   -0.7518   61.5872 C.ar    1  ZINC000821442454   -0.0500
     25 C25       -10.4464   -1.0120   60.5284 C.ar    1  ZINC000821442454   -0.0800
     26 Cl26       -9.9242   -2.0457   59.2352 Cl      1  ZINC000821442454   -0.0500
     27 C27       -13.1474   -0.0063   56.2091 C.3     1  ZINC000821442454    0.1400
     28 H28       -11.5365   -0.1780   52.6950 H       1  ZINC000821442454    0.0700
     29 H29       -12.1475   -1.5782   53.6084 H       1  ZINC000821442454    0.0700
     30 H30       -11.8783   -1.7090   51.8538 H       1  ZINC000821442454    0.0800
     31 H31       -13.6794   -0.0524   51.4539 H       1  ZINC000821442454    0.1300
     32 H32       -14.2906   -1.4526   52.3674 H       1  ZINC000821442454    0.1300
     33 H33       -15.5066   -1.7377   54.4097 H       1  ZINC000821442454    0.1000
     34 H34       -14.1435   -2.4996   55.2690 H       1  ZINC000821442454    0.0700
     35 H35       -16.3481   -0.7840   56.5023 H       1  ZINC000821442454    0.0700
     36 H36       -16.1176   -2.5361   56.7209 H       1  ZINC000821442454    0.0800
     37 H37       -15.2089   -1.2956   58.6560 H       1  ZINC000821442454    0.0700
     38 H38       -13.8988   -2.1016   57.7608 H       1  ZINC000821442454    0.0800
     39 H39       -12.8167   -1.6123   59.2044 H       1  ZINC000821442454    0.4200
     40 H40       -13.1179    0.8311   61.4965 H       1  ZINC000821442454    0.1600
     41 H41       -11.6196    1.2914   63.3912 H       1  ZINC000821442454    0.1500
     42 H42        -7.8608    1.9943   66.0044 H       1  ZINC000821442454    0.4800
     43 H43        -8.6163   -1.1941   61.6139 H       1  ZINC000821442454    0.1500
     44 H44       -12.3371   -0.7284   56.3096 H       1  ZINC000821442454    0.0800
     45 H45       -12.7357    0.9816   56.0026 H       1  ZINC000821442454    0.1000
@<TRIPOS>BOND
     1     1     2    1
     2     1    28    1
     3     1    29    1
     4     1    30    1
     5     2     3    1
     6     2    31    1
     7     2    32    1
     8     3     4    2
     9     3     5    2
    10     3     6   am
    11     6    27    1
    12     6     7    1
    13     7     8    1
    14     7    33    1
    15     7    34    1
    16     8     9    1
    17     8    35    1
    18     8    36    1
    19     9    10    1
    20     9    37    1
    21     9    38    1
    22    10    11    1
    23    10    12    1
    24    10    27    1
    25    12    13    2
    26    12    14   am
    27    14    15    1
    28    14    39    1
    29    15    25   ar
    30    15    16   ar
    31    16    17   ar
    32    16    40    1
    33    17    18   ar
    34    17    41    1
    35    18    19    1
    36    18    24   ar
    37    19    23    1
    38    19    20    2
    39    20    21    1
    40    21    22    1
    41    21    42    1
    42    22    23    2
    43    24    25   ar
    44    24    43    1
    45    25    26    1
    46    27    44    1
    47    27    45    1
@<TRIPOS>SUBSTRUCTURE
     1 ZINC000821442454        1 TEMP              0 ****  ****    0 ROOT


##########                                Name:    ZINC000477589488
##########                DOCK_Rotatable_Bonds:                   6
##########                         Heavy_Atoms:                  32
##########                    Molecular_Weight:             423.517
##########                DOCK_Rotatable_Bonds:                   6
##########                       Formal_Charge:        -8.19564e-07
##########                     HBond_Acceptors:                   6
##########                        HBond_Donors:                   1
##########                         Heavy_Atoms:                  32
##########                          Grid_Score:          -27.807306
##########                     Grid_vdw_energy:          -23.386770
##########                      Grid_es_energy:           -4.420536
##########           Internal_energy_repulsive:           29.521080

@<TRIPOS>MOLECULE
ZINC000477589488
 57 61 1 0 0
SMALL
USER_CHARGES


@<TRIPOS>ATOM
      1 O1        -12.9081    0.5364   63.2055 O.2     1  ZINC000477589488   -0.5800
      2 C2        -12.1225    1.0391   62.4254 C.2     1  ZINC000477589488    0.7100
      3 N3        -11.4424    2.1489   62.7749 N.am    1  ZINC000477589488   -0.7400
      4 C4        -11.6542    2.7531   64.0926 C.3     1  ZINC000477589488    0.2500
      5 H5        -11.8040    1.9672   64.8329 H       1  ZINC000477589488    0.1100
      6 C6        -12.8714    3.6405   64.0487 C.ar    1  ZINC000477589488   -0.0900
      7 C7        -13.1888    4.4326   65.1363 C.ar    1  ZINC000477589488   -0.1000
      8 C8        -14.3053    5.2466   65.0961 C.ar    1  ZINC000477589488   -0.1200
      9 C9        -15.1042    5.2689   63.9681 C.ar    1  ZINC000477589488   -0.1200
     10 C10       -14.7863    4.4775   62.8802 C.ar    1  ZINC000477589488   -0.1200
     11 C11       -13.6673    3.6666   62.9188 C.ar    1  ZINC000477589488   -0.1000
     12 C12       -10.4475    3.5739   64.4687 C.ar    1  ZINC000477589488   -0.0700
     13 C13        -9.3798    2.9821   65.1643 C.ar    1  ZINC000477589488   -0.0400
     14 C14        -9.4066    1.6239   65.5243 C.ar    1  ZINC000477589488   -0.1100
     15 C15        -8.3540    1.0847   66.1975 C.ar    1  ZINC000477589488   -0.1100
     16 C16        -7.2466    1.8599   66.5375 C.ar    1  ZINC000477589488   -0.1100
     17 C17        -7.1857    3.1784   66.2059 C.ar    1  ZINC000477589488   -0.1100
     18 C18        -8.2534    3.7703   65.5096 C.ar    1  ZINC000477589488   -0.0500
     19 C19        -8.2264    5.1282   65.1496 C.ar    1  ZINC000477589488   -0.1000
     20 C20        -9.2789    5.6671   64.4751 C.ar    1  ZINC000477589488   -0.1100
     21 C21       -10.3839    4.8911   64.1313 C.ar    1  ZINC000477589488   -0.1100
     22 N22       -11.9278    0.4832   61.2131 N.am    1  ZINC000477589488   -0.6300
     23 C23       -10.9735    1.0680   60.2589 C.3     1  ZINC000477589488    0.1300
     24 C24       -10.0330   -0.0390   59.7707 C.3     1  ZINC000477589488    0.0500
     25 N25       -10.8285   -1.1574   59.2471 N.3     1  ZINC000477589488   -0.4700
     26 C26       -10.0134   -2.1106   58.6467 C.ar    1  ZINC000477589488    0.2500
     27 C27        -8.7097   -2.3044   59.1016 C.ar    1  ZINC000477589488   -0.1300
     28 C28        -7.9382   -3.2667   58.4694 C.ar    1  ZINC000477589488   -0.0900
     29 C29        -8.5098   -3.9776   57.4236 C.ar    1  ZINC000477589488    0.0200
     30 N30        -9.7519   -3.7288   57.0585 N.ar    1  ZINC000477589488   -0.2200
     31 N31       -10.4739   -2.8431   57.6429 N.ar    1  ZINC000477589488   -0.2800
     32 C32       -11.6570   -1.7607   60.2995 C.3     1  ZINC000477589488    0.0400
     33 C33       -12.6596   -0.7278   60.8117 C.3     1  ZINC000477589488    0.1200
     34 H34       -10.8127    2.5476   62.1542 H       1  ZINC000477589488    0.3900
     35 H35       -12.5647    4.4152   66.0175 H       1  ZINC000477589488    0.1100
     36 H36       -14.5537    5.8649   65.9460 H       1  ZINC000477589488    0.1200
     37 H37       -15.9769    5.9043   63.9370 H       1  ZINC000477589488    0.1200
     38 H38       -15.4106    4.4946   61.9991 H       1  ZINC000477589488    0.1200
     39 H39       -13.4189    3.0483   62.0689 H       1  ZINC000477589488    0.1200
     40 H40       -10.2584    1.0111   65.2682 H       1  ZINC000477589488    0.1300
     41 H41        -8.3771    0.0407   66.4729 H       1  ZINC000477589488    0.1300
     42 H42        -6.4246    1.4074   67.0722 H       1  ZINC000477589488    0.1300
     43 H43        -6.3214    3.7668   66.4766 H       1  ZINC000477589488    0.1300
     44 H44        -7.3754    5.7412   65.4072 H       1  ZINC000477589488    0.1300
     45 H45        -9.2558    6.7112   64.1999 H       1  ZINC000477589488    0.1300
     46 H46       -11.2055    5.3433   63.5957 H       1  ZINC000477589488    0.1200
     47 H47       -11.5145    1.4890   59.4114 H       1  ZINC000477589488    0.0800
     48 H48       -10.3948    1.8491   60.7520 H       1  ZINC000477589488    0.1100
     49 H49        -9.3906    0.3514   58.9814 H       1  ZINC000477589488    0.1000
     50 H50        -9.4189   -0.3869   60.6013 H       1  ZINC000477589488    0.0600
     51 H51        -8.3135   -1.7225   59.9207 H       1  ZINC000477589488    0.1500
     52 H52        -6.9219   -3.4574   58.7812 H       1  ZINC000477589488    0.1500
     53 H53        -7.9370   -4.7344   56.9086 H       1  ZINC000477589488    0.1700
     54 H54       -12.1924   -2.6190   59.8937 H       1  ZINC000477589488    0.1000
     55 H55       -11.0203   -2.0848   61.1227 H       1  ZINC000477589488    0.0600
     56 H56       -13.1976   -1.1333   61.6684 H       1  ZINC000477589488    0.0800
     57 H57       -13.3640   -0.4768   60.0187 H       1  ZINC000477589488    0.0900
@<TRIPOS>BOND
     1     1     2    2
     2     2     3   am
     3     2    22   am
     4     3     4    1
     5     3    34    1
     6     4     5    1
     7     4     6    1
     8     4    12    1
     9     6    11   ar
    10     6     7   ar
    11     7     8   ar
    12     7    35    1
    13     8     9   ar
    14     8    36    1
    15     9    10   ar
    16     9    37    1
    17    10    11   ar
    18    10    38    1
    19    11    39    1
    20    12    21   ar
    21    12    13   ar
    22    13    18   ar
    23    13    14   ar
    24    14    15   ar
    25    14    40    1
    26    15    16   ar
    27    15    41    1
    28    16    17   ar
    29    16    42    1
    30    17    18   ar
    31    17    43    1
    32    18    19   ar
    33    19    20   ar
    34    19    44    1
    35    20    21   ar
    36    20    45    1
    37    21    46    1
    38    22    33    1
    39    22    23    1
    40    23    24    1
    41    23    47    1
    42    23    48    1
    43    24    25    1
    44    24    49    1
    45    24    50    1
    46    25    26    1
    47    25    32    1
    48    26    31   ar
    49    26    27   ar
    50    27    28   ar
    51    27    51    1
    52    28    29   ar
    53    28    52    1
    54    29    30   ar
    55    29    53    1
    56    30    31   ar
    57    32    33    1
    58    32    54    1
    59    32    55    1
    60    33    56    1
    61    33    57    1
@<TRIPOS>SUBSTRUCTURE
     1 ZINC000477589488        1 TEMP              0 ****  ****    0 ROOT


##########                                Name:    ZINC000859202493
##########                DOCK_Rotatable_Bonds:                  11
##########                         Heavy_Atoms:                  25
##########                    Molecular_Weight:             382.404
##########                DOCK_Rotatable_Bonds:                  11
##########                       Formal_Charge:          -0.0200009
##########                     HBond_Acceptors:                  10
##########                        HBond_Donors:                   3
##########                         Heavy_Atoms:                  25
##########                          Grid_Score:          -27.806702
##########                     Grid_vdw_energy:          -23.832747
##########                      Grid_es_energy:           -3.973954
##########           Internal_energy_repulsive:           12.996110

@<TRIPOS>MOLECULE
ZINC000859202493
 46 46 1 0 0
SMALL
USER_CHARGES


@<TRIPOS>ATOM
      1 C1         -8.6720    2.8387   58.8239 C.3     1  ZINC000859202493   -0.1500
      2 C2         -9.8507    3.6975   59.2864 C.3     1  ZINC000859202493   -0.1200
      3 C3        -11.1585    3.0803   58.7869 C.3     1  ZINC000859202493   -0.1000
      4 H4        -11.1035    1.9950   58.8714 H       1  ZINC000859202493    0.0700
      5 C5        -11.3789    3.4674   57.3232 C.3     1  ZINC000859202493   -0.1600
      6 C6        -12.3231    3.5992   59.6326 C.3     1  ZINC000859202493   -0.1200
      7 C7        -12.7343    2.5290   60.6458 C.3     1  ZINC000859202493    0.1600
      8 H8        -12.8171    1.5654   60.1430 H       1  ZINC000859202493    0.1000
      9 C9        -14.0850    2.9010   61.2607 C.3     1  ZINC000859202493    0.0500
     10 O10       -14.8642    1.7182   61.4500 O.3     1  ZINC000859202493   -0.5700
     11 N11       -11.7236    2.4432   61.7027 N.am    1  ZINC000859202493   -1.1000
     12 S12       -11.5073    1.0239   62.5283 S.o2    1  ZINC000859202493    2.6900
     13 O13       -10.3736    1.2144   63.3635 O.2     1  ZINC000859202493   -0.9500
     14 O14       -12.7850    0.6502   63.0253 O.2     1  ZINC000859202493   -0.9500
     15 C15       -11.0547   -0.2028   61.3471 C.ar    1  ZINC000859202493   -0.6600
     16 C16        -9.7342   -0.3333   60.9586 C.ar    1  ZINC000859202493   -0.0300
     17 C17        -9.3749   -1.2945   60.0314 C.ar    1  ZINC000859202493   -0.1100
     18 C18       -10.3346   -2.1276   59.4911 C.ar    1  ZINC000859202493   -0.0600
     19 C19       -11.6619   -1.9993   59.8796 C.ar    1  ZINC000859202493    0.1200
     20 N20       -12.6366   -2.8421   59.3342 N.am    1  ZINC000859202493   -0.6500
     21 C21       -13.1084   -2.6121   58.0929 C.2     1  ZINC000859202493    0.4800
     22 O22       -12.6881   -1.6745   57.4484 O.2     1  ZINC000859202493   -0.4500
     23 C23       -14.1582   -3.5199   57.5056 C.3     1  ZINC000859202493    0.4600
     24 F24       -15.1576   -3.7534   58.4564 F       1  ZINC000859202493   -0.1500
     25 F25       -14.7206   -2.9136   56.3772 F       1  ZINC000859202493   -0.1600
     26 F26       -13.5710   -4.7353   57.1380 F       1  ZINC000859202493   -0.1600
     27 C27       -12.0186   -1.0367   60.8146 C.ar    1  ZINC000859202493   -0.0300
     28 H28        -7.7404    3.2784   59.1798 H       1  ZINC000859202493    0.0500
     29 H29        -8.7759    1.8315   59.2277 H       1  ZINC000859202493    0.0500
     30 H30        -8.6601    2.7941   57.7349 H       1  ZINC000859202493    0.0600
     31 H31        -9.8626    3.7420   60.3755 H       1  ZINC000859202493    0.0600
     32 H32        -9.7469    4.7046   58.8827 H       1  ZINC000859202493    0.0600
     33 H33       -12.3106    3.0276   56.9674 H       1  ZINC000859202493    0.0500
     34 H34       -11.4339    4.5528   57.2388 H       1  ZINC000859202493    0.0600
     35 H35       -10.5492    3.0977   56.7207 H       1  ZINC000859202493    0.0600
     36 H36       -12.0145    4.5009   60.1617 H       1  ZINC000859202493    0.0800
     37 H37       -13.1686    3.8297   58.9843 H       1  ZINC000859202493    0.0800
     38 H38       -13.9245    3.3881   62.2225 H       1  ZINC000859202493    0.0600
     39 H39       -14.6134    3.5811   60.5927 H       1  ZINC000859202493    0.0600
     40 H40       -15.0797    1.2538   60.6297 H       1  ZINC000859202493    0.3800
     41 H41       -11.1809    3.2175   61.9190 H       1  ZINC000859202493    0.4200
     42 H42        -8.9818    0.3169   61.3797 H       1  ZINC000859202493    0.1500
     43 H43        -8.3427   -1.3936   59.7295 H       1  ZINC000859202493    0.1400
     44 H44       -10.0534   -2.8777   58.7668 H       1  ZINC000859202493    0.1400
     45 H45       -12.9727   -3.5921   59.8496 H       1  ZINC000859202493    0.4200
     46 H46       -13.0498   -0.9344   61.1187 H       1  ZINC000859202493    0.1500
@<TRIPOS>BOND
     1     1     2    1
     2     1    28    1
     3     1    29    1
     4     1    30    1
     5     2     3    1
     6     2    31    1
     7     2    32    1
     8     3     4    1
     9     3     5    1
    10     3     6    1
    11     5    33    1
    12     5    34    1
    13     5    35    1
    14     6     7    1
    15     6    36    1
    16     6    37    1
    17     7     8    1
    18     7     9    1
    19     7    11    1
    20     9    10    1
    21     9    38    1
    22     9    39    1
    23    10    40    1
    24    11    12   am
    25    11    41    1
    26    12    13    2
    27    12    14    2
    28    12    15    1
    29    15    27   ar
    30    15    16   ar
    31    16    17   ar
    32    16    42    1
    33    17    18   ar
    34    17    43    1
    35    18    19   ar
    36    18    44    1
    37    19    20    1
    38    19    27   ar
    39    20    21   am
    40    20    45    1
    41    21    22    2
    42    21    23    1
    43    23    24    1
    44    23    25    1
    45    23    26    1
    46    27    46    1
@<TRIPOS>SUBSTRUCTURE
     1 ZINC000859202493        1 TEMP              0 ****  ****    0 ROOT


##########                                Name:    ZINC000179743483
##########                DOCK_Rotatable_Bonds:                   5
##########                         Heavy_Atoms:                  23
##########                    Molecular_Weight:             393.347
##########                DOCK_Rotatable_Bonds:                   5
##########                       Formal_Charge:          -0.0199999
##########                     HBond_Acceptors:                   4
##########                        HBond_Donors:                   0
##########                         Heavy_Atoms:                  23
##########                          Grid_Score:          -27.794147
##########                     Grid_vdw_energy:          -26.686396
##########                      Grid_es_energy:           -1.107752
##########           Internal_energy_repulsive:           22.295444

@<TRIPOS>MOLECULE
ZINC000179743483
 44 46 1 0 0
SMALL
USER_CHARGES


@<TRIPOS>ATOM
      1 C1        -10.6705    1.6013   61.4606 C.3     1  ZINC000179743483   -0.1400
      2 C2        -11.5517    0.7381   62.3659 C.3     1  ZINC000179743483   -0.1000
      3 H3        -11.0035   -0.1570   62.6599 H       1  ZINC000179743483    0.1000
      4 C4        -11.9346    1.5349   63.6147 C.3     1  ZINC000179743483   -0.0700
      5 C5        -10.6878    2.0678   64.2724 C.ar    1  ZINC000179743483   -0.0600
      6 C6        -10.5768    3.4173   64.5518 C.ar    1  ZINC000179743483   -0.1100
      7 C7         -9.4336    3.9064   65.1554 C.ar    1  ZINC000179743483   -0.0900
      8 C8         -8.4006    3.0457   65.4799 C.ar    1  ZINC000179743483   -0.0900
      9 Br9        -6.8367    3.7142   66.3063 Br      1  ZINC000179743483   -0.0500
     10 C10        -8.5122    1.6956   65.2002 C.ar    1  ZINC000179743483   -0.0900
     11 C11        -9.6578    1.2065   64.6013 C.ar    1  ZINC000179743483   -0.1100
     12 C12       -12.8000    0.3408   61.6212 C.2     1  ZINC000179743483    0.5200
     13 O13       -13.8341    0.9476   61.8038 O.2     1  ZINC000179743483   -0.5300
     14 N14       -12.7675   -0.6889   60.7522 N.am    1  ZINC000179743483   -0.6100
     15 C15       -13.9765   -1.0879   60.0189 C.3     1  ZINC000179743483    0.1000
     16 C16       -13.6591   -1.1113   58.5203 C.3     1  ZINC000179743483   -0.1400
     17 C17       -12.4478   -2.0135   58.2735 C.3     1  ZINC000179743483   -0.1100
     18 C18       -11.2326   -1.4532   59.0160 C.3     1  ZINC000179743483   -0.0200
     19 H19       -11.0313   -0.4389   58.6711 H       1  ZINC000179743483    0.0900
     20 C20       -10.0325   -2.3237   58.7456 C.2     1  ZINC000179743483    0.0500
     21 N21        -8.9621   -2.3501   59.4655 N.2     1  ZINC000179743483   -0.4700
     22 C22        -8.0041   -3.1725   59.0877 C.2     1  ZINC000179743483    0.0400
     23 C23        -8.2820   -3.8790   57.9879 C.2     1  ZINC000179743483   -0.2600
     24 S24        -9.8953   -3.4246   57.4446 S.3     1  ZINC000179743483    0.1300
     25 C25       -11.5209   -1.4298   60.5156 C.3     1  ZINC000179743483    0.1200
     26 H26       -11.2441    2.4570   61.1043 H       1  ZINC000179743483    0.0700
     27 H27        -9.8055    1.9523   62.0231 H       1  ZINC000179743483    0.0700
     28 H28       -10.3345    1.0094   60.6092 H       1  ZINC000179743483    0.0600
     29 H29       -12.5798    2.3664   63.3316 H       1  ZINC000179743483    0.0900
     30 H30       -12.4639    0.8853   64.3119 H       1  ZINC000179743483    0.0800
     31 H31       -11.3832    4.0892   64.2981 H       1  ZINC000179743483    0.1300
     32 H32        -9.3468    4.9607   65.3733 H       1  ZINC000179743483    0.1300
     33 H33        -7.7059    1.0232   65.4533 H       1  ZINC000179743483    0.1300
     34 H34        -9.7450    0.1524   64.3829 H       1  ZINC000179743483    0.1300
     35 H35       -14.2886   -2.0811   60.3418 H       1  ZINC000179743483    0.0700
     36 H36       -14.7744   -0.3710   60.2123 H       1  ZINC000179743483    0.0900
     37 H37       -14.5184   -1.4980   57.9725 H       1  ZINC000179743483    0.0800
     38 H38       -13.4350   -0.1002   58.1802 H       1  ZINC000179743483    0.0700
     39 H39       -12.6635   -3.0184   58.6366 H       1  ZINC000179743483    0.0800
     40 H40       -12.2349   -2.0514   57.2052 H       1  ZINC000179743483    0.0700
     41 H41        -7.0708   -3.2673   59.6228 H       1  ZINC000179743483    0.1800
     42 H42        -7.6335   -4.6033   57.5174 H       1  ZINC000179743483    0.1800
     43 H43       -10.6988   -0.9407   61.0382 H       1  ZINC000179743483    0.0900
     44 H44       -11.6341   -2.4501   60.8819 H       1  ZINC000179743483    0.0800
@<TRIPOS>BOND
     1     1     2    1
     2     1    26    1
     3     1    27    1
     4     1    28    1
     5     2     3    1
     6     2     4    1
     7     2    12    1
     8     4     5    1
     9     4    29    1
    10     4    30    1
    11     5    11   ar
    12     5     6   ar
    13     6     7   ar
    14     6    31    1
    15     7     8   ar
    16     7    32    1
    17     8     9    1
    18     8    10   ar
    19    10    11   ar
    20    10    33    1
    21    11    34    1
    22    12    13    2
    23    12    14   am
    24    14    25    1
    25    14    15    1
    26    15    16    1
    27    15    35    1
    28    15    36    1
    29    16    17    1
    30    16    37    1
    31    16    38    1
    32    17    18    1
    33    17    39    1
    34    17    40    1
    35    18    19    1
    36    18    20    1
    37    18    25    1
    38    20    24    1
    39    20    21    2
    40    21    22    1
    41    22    23    2
    42    22    41    1
    43    23    24    1
    44    23    42    1
    45    25    43    1
    46    25    44    1
@<TRIPOS>SUBSTRUCTURE
     1 ZINC000179743483        1 TEMP              0 ****  ****    0 ROOT


##########                                Name:    ZINC000269287897
##########                DOCK_Rotatable_Bonds:                   8
##########                         Heavy_Atoms:                  23
##########                    Molecular_Weight:             385.301
##########                DOCK_Rotatable_Bonds:                   8
##########                       Formal_Charge:           0.0300002
##########                     HBond_Acceptors:                   5
##########                        HBond_Donors:                   1
##########                         Heavy_Atoms:                  23
##########                          Grid_Score:          -27.778894
##########                     Grid_vdw_energy:          -27.451895
##########                      Grid_es_energy:           -0.326999
##########           Internal_energy_repulsive:           10.802143

@<TRIPOS>MOLECULE
ZINC000269287897
 48 49 1 0 0
SMALL
USER_CHARGES


@<TRIPOS>ATOM
      1 C1         -4.3830    2.0359   67.2776 C.3     1  ZINC000269287897    0.0300
      2 O2         -5.6870    2.5495   67.5568 O.3     1  ZINC000269287897   -0.3800
      3 C3         -6.5442    2.6108   66.4152 C.3     1  ZINC000269287897    0.0600
      4 C4         -7.9059    3.1722   66.8295 C.3     1  ZINC000269287897    0.0600
      5 O5         -8.7632    3.2336   65.6880 O.3     1  ZINC000269287897   -0.3800
      6 C6         -9.0003    1.9670   65.0703 C.3     1  ZINC000269287897    0.0700
      7 C7         -9.9251    2.1522   63.8656 C.3     1  ZINC000269287897   -0.1000
      8 H8        -10.9045    2.5132   64.1795 H       1  ZINC000269287897    0.1000
      9 C9         -9.2904    3.1053   62.8185 C.3     1  ZINC000269287897   -0.1200
     10 C10        -9.9445    2.6512   61.4965 C.3     1  ZINC000269287897    0.1000
     11 N11       -10.4073    1.2693   61.6907 N.am    1  ZINC000269287897   -0.6300
     12 C12       -11.0504    0.5201   60.7732 C.2     1  ZINC000269287897    0.7300
     13 O13       -11.2920    0.9800   59.6739 O.2     1  ZINC000269287897   -0.5600
     14 N14       -11.4257   -0.7388   61.0744 N.am    1  ZINC000269287897   -0.6900
     15 C15       -12.0936   -1.5169   60.1215 C.ar    1  ZINC000269287897    0.1800
     16 C16       -13.4593   -1.3600   59.9287 C.ar    1  ZINC000269287897   -0.0600
     17 C17       -14.2252   -0.3512   60.7453 C.3     1  ZINC000269287897   -0.1000
     18 C18       -14.1157   -2.1290   58.9871 C.ar    1  ZINC000269287897   -0.0900
     19 C19       -13.4140   -3.0544   58.2370 C.ar    1  ZINC000269287897   -0.0800
     20 C20       -14.1336   -3.8914   57.2110 C.3     1  ZINC000269287897   -0.1100
     21 C21       -12.0532   -3.2135   58.4258 C.ar    1  ZINC000269287897   -0.0900
     22 C22       -11.3898   -2.4442   59.3624 C.ar    1  ZINC000269287897   -0.1000
     23 Br23       -9.5291   -2.6616   59.6198 Br      1  ZINC000269287897   -0.0500
     24 C24       -10.0511    0.8380   63.0552 C.3     1  ZINC000269287897    0.1400
     25 H25        -4.4680    1.0228   66.8845 H       1  ZINC000269287897    0.0400
     26 H26        -3.8922    2.6716   66.5406 H       1  ZINC000269287897    0.0400
     27 H27        -3.7942    2.0215   68.1947 H       1  ZINC000269287897    0.0900
     28 H28        -6.0985    3.2589   65.6605 H       1  ZINC000269287897    0.0600
     29 H29        -6.6738    1.6098   66.0039 H       1  ZINC000269287897    0.0600
     30 H30        -8.3516    2.5244   67.5843 H       1  ZINC000269287897    0.0700
     31 H31        -7.7762    4.1733   67.2407 H       1  ZINC000269287897    0.0600
     32 H32        -8.0530    1.5414   64.7390 H       1  ZINC000269287897    0.0600
     33 H33        -9.4694    1.2947   65.7885 H       1  ZINC000269287897    0.0500
     34 H34        -9.5437    4.1426   63.0378 H       1  ZINC000269287897    0.0900
     35 H35        -8.2094    2.9710   62.7800 H       1  ZINC000269287897    0.0800
     36 H36       -10.7912    3.2961   61.2612 H       1  ZINC000269287897    0.0700
     37 H37        -9.2129    2.6872   60.6894 H       1  ZINC000269287897    0.0700
     38 H38       -11.2330   -1.1057   61.9514 H       1  ZINC000269287897    0.4100
     39 H39       -14.3476    0.5656   60.1685 H       1  ZINC000269287897    0.0900
     40 H40       -15.2055   -0.7561   60.9964 H       1  ZINC000269287897    0.0600
     41 H41       -13.6764   -0.1335   61.6615 H       1  ZINC000269287897    0.0600
     42 H42       -15.1782   -2.0073   58.8371 H       1  ZINC000269287897    0.1300
     43 H43       -14.1239   -3.3764   56.2504 H       1  ZINC000269287897    0.0700
     44 H44       -13.6328   -4.8546   57.1118 H       1  ZINC000269287897    0.0700
     45 H45       -15.1643   -4.0488   57.5286 H       1  ZINC000269287897    0.0700
     46 H46       -11.5079   -3.9373   57.8383 H       1  ZINC000269287897    0.1400
     47 H47        -9.1006    0.3047   63.0485 H       1  ZINC000269287897    0.0700
     48 H48       -10.8375    0.2084   63.4714 H       1  ZINC000269287897    0.0900
@<TRIPOS>BOND
     1     1     2    1
     2     1    25    1
     3     1    26    1
     4     1    27    1
     5     2     3    1
     6     3     4    1
     7     3    28    1
     8     3    29    1
     9     4     5    1
    10     4    30    1
    11     4    31    1
    12     5     6    1
    13     6     7    1
    14     6    32    1
    15     6    33    1
    16     7     8    1
    17     7    24    1
    18     7     9    1
    19     9    10    1
    20     9    34    1
    21     9    35    1
    22    10    11    1
    23    10    36    1
    24    10    37    1
    25    11    12   am
    26    11    24    1
    27    12    13    2
    28    12    14   am
    29    14    15    1
    30    14    38    1
    31    15    22   ar
    32    15    16   ar
    33    16    17    1
    34    16    18   ar
    35    17    39    1
    36    17    40    1
    37    17    41    1
    38    18    19   ar
    39    18    42    1
    40    19    20    1
    41    19    21   ar
    42    20    43    1
    43    20    44    1
    44    20    45    1
    45    21    22   ar
    46    21    46    1
    47    22    23    1
    48    24    47    1
    49    24    48    1
@<TRIPOS>SUBSTRUCTURE
     1 ZINC000269287897        1 TEMP              0 ****  ****    0 ROOT


##########                                Name:    ZINC000928803822
##########                DOCK_Rotatable_Bonds:                   7
##########                         Heavy_Atoms:                  21
##########                    Molecular_Weight:             364.165
##########                DOCK_Rotatable_Bonds:                   7
##########                       Formal_Charge:         -0.00999978
##########                     HBond_Acceptors:                   7
##########                        HBond_Donors:                   1
##########                         Heavy_Atoms:                  21
##########                          Grid_Score:          -27.778755
##########                     Grid_vdw_energy:          -27.730541
##########                      Grid_es_energy:           -0.048214
##########           Internal_energy_repulsive:            7.145281

@<TRIPOS>MOLECULE
ZINC000928803822
 34 34 1 0 0
SMALL
USER_CHARGES


@<TRIPOS>ATOM
      1 C1        -14.2083   -0.4579   59.3259 C.3     1  ZINC000928803822    0.0900
      2 N2        -13.5888   -1.7455   59.6496 N.pl3   1  ZINC000928803822   -0.6300
      3 C3        -14.4228   -2.9384   59.8159 C.3     1  ZINC000928803822    0.0900
      4 C4        -12.2028   -1.8357   59.7997 C.ar    1  ZINC000928803822    0.2200
      5 C5        -11.4650   -2.6591   58.9577 C.ar    1  ZINC000928803822   -0.1500
      6 C6        -10.0923   -2.7518   59.1023 C.ar    1  ZINC000928803822   -0.0500
      7 Br7        -9.0970   -3.8745   57.9514 Br      1  ZINC000928803822   -0.0400
      8 C8         -9.4468   -2.0268   60.0842 C.ar    1  ZINC000928803822   -0.1200
      9 C9        -10.1794   -1.1969   60.9347 C.ar    1  ZINC000928803822   -0.0800
     10 C10        -9.4906   -0.4194   61.9870 C.2     1  ZINC000928803822    0.5700
     11 O11        -8.5570   -0.9094   62.5920 O.2     1  ZINC000928803822   -0.5100
     12 N12        -9.8977    0.8326   62.2754 N.am    1  ZINC000928803822   -0.7200
     13 C13        -9.2164    1.6023   63.3191 C.3     1  ZINC000928803822    0.1100
     14 H14        -8.1492    1.3819   63.2949 H       1  ZINC000928803822    0.1400
     15 C15        -9.7850    1.2210   64.6873 C.3     1  ZINC000928803822   -0.0300
     16 C16        -8.9642    0.1520   65.2792 C.1     1  ZINC000928803822    0.2000
     17 N17        -8.3308   -0.6729   65.7360 N.1     1  ZINC000928803822   -0.4000
     18 C18        -9.4341    3.0969   63.0749 C.3     1  ZINC000928803822    0.4400
     19 F19       -10.7821    3.4111   63.2776 F       1  ZINC000928803822   -0.1800
     20 F20        -8.6446    3.8346   63.9636 F       1  ZINC000928803822   -0.1700
     21 F21        -9.0745    3.4118   61.7601 F       1  ZINC000928803822   -0.1600
     22 C22       -11.5626   -1.0993   60.7851 C.ar    1  ZINC000928803822   -0.1200
     23 H23       -14.4570    0.0676   60.2479 H       1  ZINC000928803822    0.0600
     24 H24       -13.5120    0.1435   58.7414 H       1  ZINC000928803822    0.0700
     25 H25       -15.1167   -0.6269   58.7477 H       1  ZINC000928803822    0.0700
     26 H26       -14.5346   -3.4404   58.8549 H       1  ZINC000928803822    0.0500
     27 H27       -13.9502   -3.6159   60.5270 H       1  ZINC000928803822    0.0700
     28 H28       -15.4043   -2.6464   60.1895 H       1  ZINC000928803822    0.0700
     29 H29       -11.9648   -3.2288   58.1883 H       1  ZINC000928803822    0.1400
     30 H30        -8.3750   -2.1019   60.1944 H       1  ZINC000928803822    0.1300
     31 H31       -10.6419    1.2240   61.7917 H       1  ZINC000928803822    0.4100
     32 H32        -9.7730    2.0928   65.3416 H       1  ZINC000928803822    0.1400
     33 H33       -10.8100    0.8692   64.5696 H       1  ZINC000928803822    0.1300
     34 H34       -12.1344   -0.4589   61.4403 H       1  ZINC000928803822    0.1500
@<TRIPOS>BOND
     1     1     2    1
     2     1    23    1
     3     1    24    1
     4     1    25    1
     5     2     3    1
     6     2     4    1
     7     3    26    1
     8     3    27    1
     9     3    28    1
    10     4    22   ar
    11     4     5   ar
    12     5     6   ar
    13     5    29    1
    14     6     7    1
    15     6     8   ar
    16     8     9   ar
    17     8    30    1
    18     9    10    1
    19     9    22   ar
    20    10    11    2
    21    10    12   am
    22    12    13    1
    23    12    31    1
    24    13    14    1
    25    13    15    1
    26    13    18    1
    27    15    16    1
    28    15    32    1
    29    15    33    1
    30    16    17    3
    31    18    19    1
    32    18    20    1
    33    18    21    1
    34    22    34    1
@<TRIPOS>SUBSTRUCTURE
     1 ZINC000928803822        1 TEMP              0 ****  ****    0 ROOT


##########                                Name:    ZINC001085711660
##########                DOCK_Rotatable_Bonds:                   8
##########                         Heavy_Atoms:                  25
##########                    Molecular_Weight:             347.414
##########                DOCK_Rotatable_Bonds:                   8
##########                       Formal_Charge:         -0.00999993
##########                     HBond_Acceptors:                   7
##########                        HBond_Donors:                   0
##########                         Heavy_Atoms:                  25
##########                          Grid_Score:          -27.741207
##########                     Grid_vdw_energy:          -23.267134
##########                      Grid_es_energy:           -4.474073
##########           Internal_energy_repulsive:           16.512573

@<TRIPOS>MOLECULE
ZINC001085711660
 50 52 1 0 0
SMALL
USER_CHARGES


@<TRIPOS>ATOM
      1 C1         -7.9588    1.5070   65.5922 C.3     1  ZINC001085711660    0.0300
      2 O2         -8.8648    1.7871   64.5231 O.3     1  ZINC001085711660   -0.3800
      3 C3        -10.0481    2.4774   64.9298 C.3     1  ZINC001085711660    0.1400
      4 C4        -10.9432    2.6864   63.7357 C.2     1  ZINC001085711660    0.0100
      5 C5        -10.8961    3.7408   62.8919 C.2     1  ZINC001085711660   -0.1900
      6 C6        -11.8951    3.5421   61.9261 C.2     1  ZINC001085711660   -0.1200
      7 C7        -12.5088    2.3617   62.2334 C.2     1  ZINC001085711660   -0.0700
      8 C8        -13.6178    1.7492   61.4948 C.2     1  ZINC001085711660    0.6000
      9 O9        -14.7293    1.7084   61.9889 O.2     1  ZINC001085711660   -0.5200
     10 N10       -13.4062    1.2313   60.2685 N.am    1  ZINC001085711660   -0.6000
     11 C11       -14.5141    0.6195   59.5305 C.3     1  ZINC001085711660    0.0700
     12 C12       -12.0683    1.2804   59.6736 C.3     1  ZINC001085711660    0.1300
     13 C13       -11.1189    0.3920   60.4799 C.3     1  ZINC001085711660    0.0000
     14 H14       -11.5568    0.0489   61.4173 H       1  ZINC001085711660    0.1000
     15 C15        -9.7140    0.9887   60.6436 C.3     1  ZINC001085711660   -0.1400
     16 C16        -9.2607   -0.4634   60.4375 C.3     1  ZINC001085711660    0.0100
     17 N17       -10.5100   -0.6908   59.6849 N.3     1  ZINC001085711660   -0.4500
     18 C18       -11.1003   -1.9921   60.0256 C.3     1  ZINC001085711660    0.1500
     19 H19       -11.4303   -1.9806   61.0644 H       1  ZINC001085711660    0.1000
     20 C20       -10.0544   -3.0924   59.8348 C.3     1  ZINC001085711660   -0.1900
     21 C21       -12.2801   -2.2592   59.1268 C.2     1  ZINC001085711660    0.2000
     22 N22       -13.4593   -2.6498   59.5188 N.2     1  ZINC001085711660   -0.4700
     23 C23       -14.2504   -2.7825   58.4395 C.2     1  ZINC001085711660   -0.0400
     24 C24       -13.5219   -2.4602   57.3579 C.2     1  ZINC001085711660   -0.0500
     25 C25       -13.9945   -2.4631   55.9269 C.3     1  ZINC001085711660   -0.0700
     26 O26       -12.2906   -2.1285   57.7936 O.3     1  ZINC001085711660   -0.2000
     27 O27       -11.9128    1.8550   63.3326 O.3     1  ZINC001085711660   -0.1500
     28 H28        -7.6428    2.4418   66.0550 H       1  ZINC001085711660    0.0500
     29 H29        -8.4557    0.8834   66.3355 H       1  ZINC001085711660    0.0500
     30 H30        -7.0871    0.9819   65.2016 H       1  ZINC001085711660    0.0900
     31 H31       -10.5742    1.8863   65.6793 H       1  ZINC001085711660    0.0900
     32 H32        -9.7770    3.4441   65.3543 H       1  ZINC001085711660    0.0700
     33 H33       -10.2174    4.5790   62.9497 H       1  ZINC001085711660    0.1600
     34 H34       -12.1324    4.1961   61.1001 H       1  ZINC001085711660    0.1600
     35 H35       -15.0769    1.3951   59.0113 H       1  ZINC001085711660    0.0600
     36 H36       -14.1186   -0.0903   58.8041 H       1  ZINC001085711660    0.0900
     37 H37       -15.1709    0.0986   60.2272 H       1  ZINC001085711660    0.0800
     38 H38       -12.1147    0.9229   58.6450 H       1  ZINC001085711660    0.0900
     39 H39       -11.7028    2.3072   59.6853 H       1  ZINC001085711660    0.0900
     40 H40        -9.4205    1.6660   59.8415 H       1  ZINC001085711660    0.1000
     41 H41        -9.5097    1.3830   61.6390 H       1  ZINC001085711660    0.0800
     42 H42        -8.3625   -0.5554   59.8269 H       1  ZINC001085711660    0.0900
     43 H43        -9.2024   -1.0357   61.3632 H       1  ZINC001085711660    0.0800
     44 H44        -9.6451   -3.0336   58.8263 H       1  ZINC001085711660    0.0800
     45 H45        -9.2521   -2.9609   60.5608 H       1  ZINC001085711660    0.0800
     46 H46       -10.5210   -4.0665   59.9813 H       1  ZINC001085711660    0.0700
     47 H47       -15.2850   -3.0926   58.4418 H       1  ZINC001085711660    0.1800
     48 H48       -14.4018   -1.4835   55.6768 H       1  ZINC001085711660    0.0800
     49 H49       -13.1557   -2.6869   55.2677 H       1  ZINC001085711660    0.0800
     50 H50       -14.7677   -3.2209   55.8012 H       1  ZINC001085711660    0.0900
@<TRIPOS>BOND
     1     1     2    1
     2     1    28    1
     3     1    29    1
     4     1    30    1
     5     2     3    1
     6     3     4    1
     7     3    31    1
     8     3    32    1
     9     4    27    1
    10     4     5    2
    11     5     6    1
    12     5    33    1
    13     6     7    2
    14     6    34    1
    15     7     8    1
    16     7    27    1
    17     8     9    2
    18     8    10   am
    19    10    11    1
    20    10    12    1
    21    11    35    1
    22    11    36    1
    23    11    37    1
    24    12    13    1
    25    12    38    1
    26    12    39    1
    27    13    14    1
    28    13    17    1
    29    13    15    1
    30    15    16    1
    31    15    40    1
    32    15    41    1
    33    16    17    1
    34    16    42    1
    35    16    43    1
    36    17    18    1
    37    18    19    1
    38    18    20    1
    39    18    21    1
    40    20    44    1
    41    20    45    1
    42    20    46    1
    43    21    26    1
    44    21    22    2
    45    22    23    1
    46    23    24    2
    47    23    47    1
    48    24    25    1
    49    24    26    1
    50    25    48    1
    51    25    49    1
    52    25    50    1
@<TRIPOS>SUBSTRUCTURE
     1 ZINC001085711660        1 TEMP              0 ****  ****    0 ROOT


##########                                Name:    ZINC000762020937
##########                DOCK_Rotatable_Bonds:                  10
##########                         Heavy_Atoms:                  28
##########                    Molecular_Weight:             391.467
##########                DOCK_Rotatable_Bonds:                  10
##########                       Formal_Charge:         -1.8999e-07
##########                     HBond_Acceptors:                   8
##########                        HBond_Donors:                   1
##########                         Heavy_Atoms:                  28
##########                          Grid_Score:          -27.719894
##########                     Grid_vdw_energy:          -27.112797
##########                      Grid_es_energy:           -0.607097
##########           Internal_energy_repulsive:           52.127289

@<TRIPOS>MOLECULE
ZINC000762020937
 57 58 1 0 0
SMALL
USER_CHARGES


@<TRIPOS>ATOM
      1 C1        -10.8310    3.7995   65.9443 C.3     1  ZINC000762020937    0.0200
      2 O2         -9.5746    3.3606   65.4238 O.3     1  ZINC000762020937   -0.3000
      3 C3         -9.6086    2.4471   64.4170 C.ar    1  ZINC000762020937    0.1100
      4 C4        -10.3041    2.7241   63.2515 C.ar    1  ZINC000762020937   -0.1700
      5 C5        -10.3373    1.7941   62.2285 C.ar    1  ZINC000762020937   -0.1000
      6 C6         -9.6780    0.5873   62.3659 C.ar    1  ZINC000762020937   -0.1000
      7 C7         -9.7178   -0.4228   61.2481 C.3     1  ZINC000762020937    0.0200
      8 C8        -11.1186   -0.5095   60.6992 C.2     1  ZINC000762020937    0.1900
      9 N9        -11.4561   -0.6825   59.4439 N.2     1  ZINC000762020937   -0.4700
     10 C10       -12.8008   -0.6963   59.4291 C.2     1  ZINC000762020937    0.1600
     11 C11       -13.6777   -0.8688   58.2157 C.3     1  ZINC000762020937    0.2600
     12 H12       -14.7024   -0.5940   58.4659 H       1  ZINC000762020937    0.1200
     13 N13       -13.1912   -0.0074   57.1352 N.am    1  ZINC000762020937   -0.7100
     14 C14       -14.0040    0.3090   56.1077 C.2     1  ZINC000762020937    0.6600
     15 O15       -15.1408   -0.1191   56.0782 O.2     1  ZINC000762020937   -0.5600
     16 O16       -13.5563    1.0993   55.1139 O.3     1  ZINC000762020937   -0.3600
     17 C17       -14.4863    1.3979   54.0394 C.3     1  ZINC000762020937    0.1400
     18 C18       -13.8044    2.3031   53.0115 C.3     1  ZINC000762020937   -0.1800
     19 C19       -14.9202    0.0955   53.3638 C.3     1  ZINC000762020937   -0.1400
     20 C20       -15.7142    2.1097   54.6108 C.3     1  ZINC000762020937   -0.1800
     21 C21       -13.6378   -2.3290   57.7610 C.3     1  ZINC000762020937   -0.1000
     22 C22       -12.2835   -2.6248   57.1135 C.3     1  ZINC000762020937   -0.1400
     23 C23       -13.8362   -3.2454   58.9700 C.3     1  ZINC000762020937   -0.1400
     24 N24       -13.2051   -0.5340   60.6534 N.2     1  ZINC000762020937   -0.3700
     25 O25       -12.2542   -0.4304   61.3993 O.3     1  ZINC000762020937    0.0900
     26 C26        -8.9816    0.3046   63.5267 C.ar    1  ZINC000762020937   -0.1500
     27 C27        -8.9399    1.2338   64.5532 C.ar    1  ZINC000762020937    0.1000
     28 O28        -8.2555    0.9574   65.6953 O.3     1  ZINC000762020937   -0.3100
     29 C29        -7.4287   -0.2081   65.6902 C.3     1  ZINC000762020937    0.0200
     30 H30       -11.4124    4.2633   65.1475 H       1  ZINC000762020937    0.0600
     31 H31       -11.3778    2.9448   66.3427 H       1  ZINC000762020937    0.0600
     32 H32       -10.6613    4.5251   66.7398 H       1  ZINC000762020937    0.1000
     33 H33       -10.8206    3.6662   63.1418 H       1  ZINC000762020937    0.1400
     34 H34       -10.8799    2.0114   61.3203 H       1  ZINC000762020937    0.1300
     35 H35        -9.0354   -0.1150   60.4559 H       1  ZINC000762020937    0.1200
     36 H36        -9.4159   -1.3984   61.6292 H       1  ZINC000762020937    0.1200
     37 H37       -12.2840    0.3354   57.1593 H       1  ZINC000762020937    0.4100
     38 H38       -12.9295    1.7960   52.6045 H       1  ZINC000762020937    0.0600
     39 H39       -14.5024    2.5272   52.2050 H       1  ZINC000762020937    0.0700
     40 H40       -13.4952    3.2309   53.4929 H       1  ZINC000762020937    0.0900
     41 H41       -15.4060   -0.5493   54.0961 H       1  ZINC000762020937    0.0700
     42 H42       -15.6182    0.3197   52.5572 H       1  ZINC000762020937    0.0800
     43 H43       -14.0454   -0.4115   52.9568 H       1  ZINC000762020937    0.0700
     44 H44       -15.4051    3.0375   55.0922 H       1  ZINC000762020937    0.0900
     45 H45       -16.4122    2.3339   53.8042 H       1  ZINC000762020937    0.0700
     46 H46       -16.2000    1.4649   55.3430 H       1  ZINC000762020937    0.0600
     47 H47       -14.4331   -2.5059   57.0367 H       1  ZINC000762020937    0.0800
     48 H48       -11.4883   -2.4480   57.8377 H       1  ZINC000762020937    0.0600
     49 H49       -12.2551   -3.6652   56.7895 H       1  ZINC000762020937    0.0600
     50 H50       -12.1423   -1.9720   56.2522 H       1  ZINC000762020937    0.0500
     51 H51       -14.8010   -3.0347   59.4313 H       1  ZINC000762020937    0.0500
     52 H52       -13.8078   -4.2857   58.6460 H       1  ZINC000762020937    0.0600
     53 H53       -13.0409   -3.0686   59.6942 H       1  ZINC000762020937    0.0700
     54 H54        -8.4672   -0.6393   63.6315 H       1  ZINC000762020937    0.1400
     55 H55        -6.6723   -0.1136   64.9110 H       1  ZINC000762020937    0.0600
     56 H56        -6.9409   -0.3119   66.6594 H       1  ZINC000762020937    0.1000
     57 H57        -8.0422   -1.0879   65.4962 H       1  ZINC000762020937    0.0600
@<TRIPOS>BOND
     1     1     2    1
     2     1    30    1
     3     1    31    1
     4     1    32    1
     5     2     3    1
     6     3    27   ar
     7     3     4   ar
     8     4     5   ar
     9     4    33    1
    10     5     6   ar
    11     5    34    1
    12     6     7    1
    13     6    26   ar
    14     7     8    1
    15     7    35    1
    16     7    36    1
    17     8    25    1
    18     8     9    2
    19     9    10    1
    20    10    11    1
    21    10    24    2
    22    11    12    1
    23    11    13    1
    24    11    21    1
    25    13    14   am
    26    13    37    1
    27    14    15    2
    28    14    16    1
    29    16    17    1
    30    17    18    1
    31    17    19    1
    32    17    20    1
    33    18    38    1
    34    18    39    1
    35    18    40    1
    36    19    41    1
    37    19    42    1
    38    19    43    1
    39    20    44    1
    40    20    45    1
    41    20    46    1
    42    21    22    1
    43    21    23    1
    44    21    47    1
    45    22    48    1
    46    22    49    1
    47    22    50    1
    48    23    51    1
    49    23    52    1
    50    23    53    1
    51    24    25    1
    52    26    27   ar
    53    26    54    1
    54    27    28    1
    55    28    29    1
    56    29    55    1
    57    29    56    1
    58    29    57    1
@<TRIPOS>SUBSTRUCTURE
     1 ZINC000762020937        1 TEMP              0 ****  ****    0 ROOT


##########                                Name:    ZINC000846412382
##########                DOCK_Rotatable_Bonds:                   6
##########                         Heavy_Atoms:                  26
##########                    Molecular_Weight:             370.475
##########                DOCK_Rotatable_Bonds:                   6
##########                       Formal_Charge:               -0.03
##########                     HBond_Acceptors:                   7
##########                        HBond_Donors:                   4
##########                         Heavy_Atoms:                  26
##########                          Grid_Score:          -27.712996
##########                     Grid_vdw_energy:          -26.425674
##########                      Grid_es_energy:           -1.287321
##########           Internal_energy_repulsive:           24.799019

@<TRIPOS>MOLECULE
ZINC000846412382
 48 50 1 0 0
SMALL
USER_CHARGES


@<TRIPOS>ATOM
      1 C1        -13.0953   -1.3393   59.3074 C.3     1  ZINC000846412382   -0.1400
      2 C2        -11.6358   -1.4370   59.6699 C.2     1  ZINC000846412382    0.0300
      3 C3        -11.1242   -0.8248   60.7452 C.2     1  ZINC000846412382   -0.2700
      4 C4        -11.8966   -0.0020   61.6841 C.2     1  ZINC000846412382    0.6000
      5 O5        -12.8565   -0.4767   62.2617 O.2     1  ZINC000846412382   -0.5200
      6 N6        -11.5424    1.2792   61.9063 N.am    1  ZINC000846412382   -0.7100
      7 C7        -12.3142    2.1009   62.8420 C.3     1  ZINC000846412382    0.1200
      8 H8        -13.3633    1.8074   62.8032 H       1  ZINC000846412382    0.1000
      9 C9        -11.7796    1.8965   64.2610 C.3     1  ZINC000846412382   -0.1700
     10 C10       -12.1824    3.5751   62.4547 C.3     1  ZINC000846412382    0.1700
     11 C11       -13.2475    4.3924   63.1886 C.3     1  ZINC000846412382   -0.1400
     12 O12       -12.3629    3.7151   61.0441 O.3     1  ZINC000846412382   -0.5500
     13 C13       -10.8133    4.0748   62.8381 C.ar    1  ZINC000846412382   -0.1200
     14 C14        -9.7643    3.9711   61.9438 C.ar    1  ZINC000846412382   -0.1100
     15 C15        -8.5084    4.4294   62.2954 C.ar    1  ZINC000846412382   -0.1200
     16 C16        -8.3018    4.9920   63.5411 C.ar    1  ZINC000846412382   -0.1200
     17 C17        -9.3511    5.0965   64.4350 C.ar    1  ZINC000846412382   -0.1200
     18 C18       -10.6078    4.6420   64.0818 C.ar    1  ZINC000846412382   -0.1000
     19 S19        -9.4027   -1.1418   60.8777 S.3     1  ZINC000846412382    0.2000
     20 C20        -9.4225   -2.1294   59.4229 C.ar    1  ZINC000846412382    0.1400
     21 N21        -8.4464   -2.7916   58.7917 N.ar    1  ZINC000846412382   -0.5300
     22 C22        -8.6900   -3.4791   57.6994 C.ar    1  ZINC000846412382    0.3900
     23 C23        -7.5537   -4.2069   57.0285 C.3     1  ZINC000846412382   -0.0900
     24 N24        -9.8974   -3.5544   57.1698 N.ar    1  ZINC000846412382   -0.5800
     25 C25       -10.9299   -2.9342   57.7202 C.ar    1  ZINC000846412382    0.5100
     26 N26       -12.1851   -3.0236   57.1532 N.pl3   1  ZINC000846412382   -0.8300
     27 C27       -10.7258   -2.1781   58.9089 C.ar    1  ZINC000846412382   -0.2500
     28 H28       -13.6286   -2.1991   59.7127 H       1  ZINC000846412382    0.0800
     29 H29       -13.5127   -0.4230   59.7247 H       1  ZINC000846412382    0.1100
     30 H30       -13.2000   -1.3251   58.2225 H       1  ZINC000846412382    0.0700
     31 H31       -10.7764    1.6574   61.4467 H       1  ZINC000846412382    0.4000
     32 H32       -10.7305    2.1901   64.2997 H       1  ZINC000846412382    0.0600
     33 H33       -12.3539    2.5078   64.9571 H       1  ZINC000846412382    0.0800
     34 H34       -11.8734    0.8463   64.5368 H       1  ZINC000846412382    0.0700
     35 H35       -13.1099    4.2857   64.2647 H       1  ZINC000846412382    0.0700
     36 H36       -13.1537    5.4427   62.9127 H       1  ZINC000846412382    0.0700
     37 H37       -14.2378    4.0310   62.9114 H       1  ZINC000846412382    0.0700
     38 H38       -11.6973    3.2545   60.5149 H       1  ZINC000846412382    0.3800
     39 H39        -9.9259    3.5316   60.9706 H       1  ZINC000846412382    0.1300
     40 H40        -7.6887    4.3478   61.5971 H       1  ZINC000846412382    0.1200
     41 H41        -7.3204    5.3494   63.8161 H       1  ZINC000846412382    0.1200
     42 H42        -9.1895    5.5357   65.4084 H       1  ZINC000846412382    0.1200
     43 H43       -11.4276    4.7237   64.7802 H       1  ZINC000846412382    0.1300
     44 H44        -7.4775   -5.2154   57.4353 H       1  ZINC000846412382    0.0900
     45 H45        -7.7398   -4.2609   55.9559 H       1  ZINC000846412382    0.0900
     46 H46        -6.6219   -3.6710   57.2091 H       1  ZINC000846412382    0.0900
     47 H47       -12.2783   -3.2523   56.2151 H       1  ZINC000846412382    0.4100
     48 H48       -12.9739   -2.8580   57.6928 H       1  ZINC000846412382    0.4200
@<TRIPOS>BOND
     1     1     2    1
     2     1    28    1
     3     1    29    1
     4     1    30    1
     5     2    27    1
     6     2     3    2
     7     3     4    1
     8     3    19    1
     9     4     5    2
    10     4     6   am
    11     6     7    1
    12     6    31    1
    13     7     8    1
    14     7     9    1
    15     7    10    1
    16     9    32    1
    17     9    33    1
    18     9    34    1
    19    10    11    1
    20    10    12    1
    21    10    13    1
    22    11    35    1
    23    11    36    1
    24    11    37    1
    25    12    38    1
    26    13    18   ar
    27    13    14   ar
    28    14    15   ar
    29    14    39    1
    30    15    16   ar
    31    15    40    1
    32    16    17   ar
    33    16    41    1
    34    17    18   ar
    35    17    42    1
    36    18    43    1
    37    19    20    1
    38    20    27   ar
    39    20    21   ar
    40    21    22   ar
    41    22    23    1
    42    22    24   ar
    43    23    44    1
    44    23    45    1
    45    23    46    1
    46    24    25   ar
    47    25    26    1
    48    25    27   ar
    49    26    47    1
    50    26    48    1
@<TRIPOS>SUBSTRUCTURE
     1 ZINC000846412382        1 TEMP              0 ****  ****    0 ROOT


##########                                Name:    ZINC000458730620
##########                DOCK_Rotatable_Bonds:                   9
##########                         Heavy_Atoms:                  25
##########                    Molecular_Weight:              375.44
##########                DOCK_Rotatable_Bonds:                   9
##########                       Formal_Charge:        -1.86265e-07
##########                     HBond_Acceptors:                   9
##########                        HBond_Donors:                   3
##########                         Heavy_Atoms:                  25
##########                          Grid_Score:          -27.692648
##########                     Grid_vdw_energy:          -25.926573
##########                      Grid_es_energy:           -1.766075
##########           Internal_energy_repulsive:           80.679047

@<TRIPOS>MOLECULE
ZINC000458730620
 48 49 1 0 0
SMALL
USER_CHARGES


@<TRIPOS>ATOM
      1 C1        -12.5670    4.3326   56.2528 C.3     1  ZINC000458730620   -0.1600
      2 C2        -11.7585    4.2456   57.5488 C.3     1  ZINC000458730620    0.2000
      3 C3        -12.5320    4.9275   58.6792 C.3     1  ZINC000458730620   -0.1600
      4 N4        -11.5335    2.8389   57.8905 N.am    1  ZINC000458730620   -0.7400
      5 C5        -10.6726    2.5140   58.8754 C.2     1  ZINC000458730620    0.7100
      6 O6        -10.0816    3.3883   59.4792 O.2     1  ZINC000458730620   -0.5800
      7 N7        -10.4669    1.2199   59.1908 N.am    1  ZINC000458730620   -0.7500
      8 C8         -9.5325    0.8669   60.2624 C.3     1  ZINC000458730620    0.1300
      9 C9         -9.2885   -0.6435   60.2493 C.3     1  ZINC000458730620    0.1000
     10 N10       -10.4266   -1.3165   59.6184 N.am    1  ZINC000458730620   -1.1100
     11 S11       -10.4077   -2.9599   59.4148 S.o2    1  ZINC000458730620    2.7000
     12 O12       -10.1407   -3.5195   60.6935 O.2     1  ZINC000458730620   -0.9400
     13 O13       -11.5614   -3.2829   58.6507 O.2     1  ZINC000458730620   -0.9400
     14 C14        -9.0172   -3.3443   58.4033 C.ar    1  ZINC000458730620   -0.7300
     15 C15        -7.7561   -3.4219   58.9631 C.ar    1  ZINC000458730620    0.0400
     16 C16        -6.6645   -3.7238   58.1708 C.ar    1  ZINC000458730620   -0.1800
     17 C17        -6.8334   -3.9489   56.8153 C.ar    1  ZINC000458730620    0.1900
     18 F18        -5.7662   -4.2444   56.0412 F       1  ZINC000458730620   -0.1200
     19 C19        -8.0962   -3.8715   56.2532 C.ar    1  ZINC000458730620   -0.2100
     20 C20        -9.1893   -3.5742   57.0485 C.ar    1  ZINC000458730620    0.2200
     21 F21       -10.4222   -3.4984   56.5014 F       1  ZINC000458730620   -0.1100
     22 C22       -10.4116    4.9457   57.3577 C.3     1  ZINC000458730620   -0.1100
     23 C23        -9.8025    4.7385   55.9610 C.3     1  ZINC000458730620   -0.1400
     24 C24        -9.3732    6.2142   56.0154 C.3     1  ZINC000458730620   -0.1400
     25 C25       -10.5373    6.4350   56.9957 C.3     1  ZINC000458730620   -0.1400
     26 H26       -12.7873    5.3769   56.0314 H       1  ZINC000458730620    0.0600
     27 H27       -11.9896    3.9018   55.4348 H       1  ZINC000458730620    0.0500
     28 H28       -13.4999    3.7811   56.3688 H       1  ZINC000458730620    0.0800
     29 H29       -13.4915    4.4288   58.8153 H       1  ZINC000458730620    0.0800
     30 H30       -11.9561    4.8656   59.6025 H       1  ZINC000458730620    0.0500
     31 H31       -12.6994    5.9742   58.4249 H       1  ZINC000458730620    0.0600
     32 H32       -12.0041    2.1413   57.4081 H       1  ZINC000458730620    0.3900
     33 H33       -10.9374    0.5224   58.7082 H       1  ZINC000458730620    0.4000
     34 H34        -8.5881    1.3887   60.1077 H       1  ZINC000458730620    0.0800
     35 H35        -9.9553    1.1582   61.2239 H       1  ZINC000458730620    0.0800
     36 H36        -8.3806   -0.8600   59.6863 H       1  ZINC000458730620    0.0900
     37 H37        -9.1757   -1.0023   61.2723 H       1  ZINC000458730620    0.0700
     38 H38       -11.1912   -0.7997   59.3200 H       1  ZINC000458730620    0.4300
     39 H39        -7.6235   -3.2461   60.0204 H       1  ZINC000458730620    0.1700
     40 H40        -5.6794   -3.7838   58.6093 H       1  ZINC000458730620    0.1600
     41 H41        -8.2289   -4.0469   55.1959 H       1  ZINC000458730620    0.1600
     42 H42        -9.7144    4.7519   58.1727 H       1  ZINC000458730620    0.1100
     43 H43        -8.9654    4.0405   55.9488 H       1  ZINC000458730620    0.0700
     44 H44       -10.5423    4.5273   55.1889 H       1  ZINC000458730620    0.0800
     45 H45        -8.3909    6.3670   56.4626 H       1  ZINC000458730620    0.0800
     46 H46        -9.4945    6.7395   55.0681 H       1  ZINC000458730620    0.0700
     47 H47       -11.4781    6.6875   56.5065 H       1  ZINC000458730620    0.0800
     48 H48       -10.2936    7.1065   57.8189 H       1  ZINC000458730620    0.0700
@<TRIPOS>BOND
     1     1     2    1
     2     1    26    1
     3     1    27    1
     4     1    28    1
     5     2     3    1
     6     2     4    1
     7     2    22    1
     8     3    29    1
     9     3    30    1
    10     3    31    1
    11     4     5   am
    12     4    32    1
    13     5     6    2
    14     5     7   am
    15     7     8    1
    16     7    33    1
    17     8     9    1
    18     8    34    1
    19     8    35    1
    20     9    10    1
    21     9    36    1
    22     9    37    1
    23    10    11   am
    24    10    38    1
    25    11    12    2
    26    11    13    2
    27    11    14    1
    28    14    20   ar
    29    14    15   ar
    30    15    16   ar
    31    15    39    1
    32    16    17   ar
    33    16    40    1
    34    17    18    1
    35    17    19   ar
    36    19    20   ar
    37    19    41    1
    38    20    21    1
    39    22    25    1
    40    22    23    1
    41    22    42    1
    42    23    24    1
    43    23    43    1
    44    23    44    1
    45    24    25    1
    46    24    45    1
    47    24    46    1
    48    25    47    1
    49    25    48    1
@<TRIPOS>SUBSTRUCTURE
     1 ZINC000458730620        1 TEMP              0 ****  ****    0 ROOT


##########                                Name:    ZINC000564088286
##########                DOCK_Rotatable_Bonds:                   6
##########                         Heavy_Atoms:                  25
##########                    Molecular_Weight:             398.934
##########                DOCK_Rotatable_Bonds:                   6
##########                       Formal_Charge:               -0.05
##########                     HBond_Acceptors:                   8
##########                        HBond_Donors:                   1
##########                         Heavy_Atoms:                  25
##########                          Grid_Score:          -27.674610
##########                     Grid_vdw_energy:          -26.610205
##########                      Grid_es_energy:           -1.064405
##########           Internal_energy_repulsive:           16.581085

@<TRIPOS>MOLECULE
ZINC000564088286
 44 46 1 0 0
SMALL
USER_CHARGES


@<TRIPOS>ATOM
      1 C1         -7.0296    5.3108   60.2077 C.3     1  ZINC000564088286   -0.1600
      2 C2         -8.5258    5.0744   59.9914 C.3     1  ZINC000564088286    0.1100
      3 N3         -8.8005    4.9657   58.5566 N.am    1  ZINC000564088286   -1.1200
      4 S4         -8.7416    3.4878   57.8119 S.o2    1  ZINC000564088286    2.7000
      5 O5         -9.1975    3.6905   56.4813 O.2     1  ZINC000564088286   -0.9600
      6 O6         -7.4708    2.9326   58.1219 O.2     1  ZINC000564088286   -0.9600
      7 C7         -9.9384    2.4602   58.5967 C.ar    1  ZINC000564088286   -0.6800
      8 C8        -11.2360    2.4233   58.1213 C.ar    1  ZINC000564088286   -0.0200
      9 C9        -12.1750    1.6170   58.7370 C.ar    1  ZINC000564088286   -0.1300
     10 C10       -11.8165    0.8474   59.8279 C.ar    1  ZINC000564088286   -0.0100
     11 C11       -12.8403   -0.0311   60.4995 C.3     1  ZINC000564088286   -0.1100
     12 C12       -13.3973   -1.0094   59.4977 C.2     1  ZINC000564088286    0.5200
     13 O13       -14.4442   -0.7701   58.9339 O.2     1  ZINC000564088286   -0.5200
     14 N14       -12.7322   -2.1501   59.2281 N.am    1  ZINC000564088286   -0.6200
     15 C15       -13.2581   -3.1183   58.2539 C.3     1  ZINC000564088286    0.1200
     16 C16       -12.2899   -3.1937   57.0694 C.3     1  ZINC000564088286   -0.0700
     17 C17       -10.8726   -3.2873   57.5937 C.2     1  ZINC000564088286   -0.1600
     18 C18       -10.4858   -2.9597   58.8408 C.2     1  ZINC000564088286   -0.1200
     19 C19        -9.1231   -3.1274   59.0687 C.2     1  ZINC000564088286   -0.1100
     20 C20        -8.4196   -3.5866   58.0371 C.2     1  ZINC000564088286   -0.1500
     21 Cl21       -6.7103   -3.8895   58.0467 Cl      1  ZINC000564088286   -0.0100
     22 S22        -9.4857   -3.8399   56.6635 S.3     1  ZINC000564088286    0.1600
     23 C23       -11.4589   -2.4565   59.8953 C.3     1  ZINC000564088286    0.1700
     24 C24       -10.5186    0.8833   60.3025 C.ar    1  ZINC000564088286   -0.1300
     25 C25        -9.5786    1.6865   59.6844 C.ar    1  ZINC000564088286   -0.0200
     26 H26        -6.4660    4.4755   59.7921 H       1  ZINC000564088286    0.0600
     27 H27        -6.7319    6.2336   59.7098 H       1  ZINC000564088286    0.0600
     28 H28        -6.8252    5.3917   61.2753 H       1  ZINC000564088286    0.0700
     29 H29        -8.8234    4.1516   60.4893 H       1  ZINC000564088286    0.0800
     30 H30        -9.0894    5.9097   60.4071 H       1  ZINC000564088286    0.0700
     31 H31        -9.0171    5.7594   58.0427 H       1  ZINC000564088286    0.4200
     32 H32       -11.5161    3.0245   57.2690 H       1  ZINC000564088286    0.1400
     33 H33       -13.1889    1.5888   58.3660 H       1  ZINC000564088286    0.1300
     34 H34       -12.3703   -0.5768   61.3176 H       1  ZINC000564088286    0.1100
     35 H35       -13.6481    0.5869   60.8916 H       1  ZINC000564088286    0.1100
     36 H36       -13.3416   -4.0994   58.7215 H       1  ZINC000564088286    0.0800
     37 H37       -14.2380   -2.7915   57.9056 H       1  ZINC000564088286    0.1100
     38 H38       -12.5156   -4.0756   56.4697 H       1  ZINC000564088286    0.0900
     39 H39       -12.3933   -2.2984   56.4563 H       1  ZINC000564088286    0.0900
     40 H40        -8.6665   -2.8995   60.0205 H       1  ZINC000564088286    0.1500
     41 H41       -11.0608   -1.5578   60.3663 H       1  ZINC000564088286    0.1000
     42 H42       -11.6196   -3.2284   60.6478 H       1  ZINC000564088286    0.0900
     43 H43       -10.2384    0.2817   61.1545 H       1  ZINC000564088286    0.1300
     44 H44        -8.5647    1.7147   60.0551 H       1  ZINC000564088286    0.1400
@<TRIPOS>BOND
     1     1     2    1
     2     1    26    1
     3     1    27    1
     4     1    28    1
     5     2     3    1
     6     2    29    1
     7     2    30    1
     8     3     4   am
     9     3    31    1
    10     4     5    2
    11     4     6    2
    12     4     7    1
    13     7    25   ar
    14     7     8   ar
    15     8     9   ar
    16     8    32    1
    17     9    10   ar
    18     9    33    1
    19    10    11    1
    20    10    24   ar
    21    11    12    1
    22    11    34    1
    23    11    35    1
    24    12    13    2
    25    12    14   am
    26    14    23    1
    27    14    15    1
    28    15    16    1
    29    15    36    1
    30    15    37    1
    31    16    17    1
    32    16    38    1
    33    16    39    1
    34    17    22    1
    35    17    18    2
    36    18    19    1
    37    18    23    1
    38    19    20    2
    39    19    40    1
    40    20    21    1
    41    20    22    1
    42    23    41    1
    43    23    42    1
    44    24    25   ar
    45    24    43    1
    46    25    44    1
@<TRIPOS>SUBSTRUCTURE
     1 ZINC000564088286        1 TEMP              0 ****  ****    0 ROOT


##########                                Name:    ZINC000077537368
##########                DOCK_Rotatable_Bonds:                   5
##########                         Heavy_Atoms:                  27
##########                    Molecular_Weight:             365.478
##########                DOCK_Rotatable_Bonds:                   5
##########                       Formal_Charge:          -0.0400007
##########                     HBond_Acceptors:                   6
##########                        HBond_Donors:                   0
##########                         Heavy_Atoms:                  27
##########                          Grid_Score:          -27.659590
##########                     Grid_vdw_energy:          -27.391239
##########                      Grid_es_energy:           -0.268351
##########           Internal_energy_repulsive:           23.277971

@<TRIPOS>MOLECULE
ZINC000077537368
 54 56 1 0 0
SMALL
USER_CHARGES


@<TRIPOS>ATOM
      1 C1        -11.4340    2.9765   57.0961 C.3     1  ZINC000077537368    0.0800
      2 N2        -10.3267    3.3801   57.9662 N.pl3   1  ZINC000077537368   -0.2600
      3 N3         -9.3014    4.0580   57.5932 N.2     1  ZINC000077537368   -0.2700
      4 C4         -8.4858    4.2618   58.5961 C.2     1  ZINC000077537368    0.0400
      5 C5         -7.1823    5.0160   58.5405 C.3     1  ZINC000077537368    0.0200
      6 C6         -6.0464    4.0473   58.2054 C.3     1  ZINC000077537368   -0.1400
      7 C7         -7.2648    6.0980   57.4619 C.3     1  ZINC000077537368   -0.1400
      8 C8         -6.9124    5.6685   59.8979 C.3     1  ZINC000077537368   -0.1400
      9 C9         -9.0381    3.6567   59.7273 C.2     1  ZINC000077537368   -0.2000
     10 C10       -10.2299    3.0980   59.2993 C.2     1  ZINC000077537368   -0.0400
     11 C11       -11.1950    2.3435   60.1148 C.2     1  ZINC000077537368    0.5900
     12 O12       -12.2394    2.8641   60.4577 O.2     1  ZINC000077537368   -0.5400
     13 N13       -10.9214    1.0758   60.4816 N.am    1  ZINC000077537368   -0.6000
     14 C14       -11.8745    0.3019   61.2914 C.3     1  ZINC000077537368    0.0800
     15 C15       -12.1157   -1.0460   60.6033 C.3     1  ZINC000077537368    0.0400
     16 N16       -10.8260   -1.7066   60.3617 N.3     1  ZINC000077537368   -0.5300
     17 C17       -11.0206   -3.0738   59.8610 C.3     1  ZINC000077537368    0.0900
     18 C18        -9.9883   -3.3736   58.8048 C.ar    1  ZINC000077537368   -0.0500
     19 C19       -10.3570   -3.4079   57.4716 C.ar    1  ZINC000077537368   -0.1200
     20 C20        -9.4173   -3.6820   56.4996 C.ar    1  ZINC000077537368   -0.0700
     21 C21        -8.0913   -3.9248   56.8638 C.ar    1  ZINC000077537368   -0.0300
     22 C22        -7.1105   -4.2095   55.8601 C.1     1  ZINC000077537368    0.2500
     23 N23        -6.3323   -4.4354   55.0639 N.1     1  ZINC000077537368   -0.4100
     24 C24        -7.7261   -3.8881   58.2110 C.ar    1  ZINC000077537368   -0.0700
     25 C25        -8.6750   -3.6075   59.1722 C.ar    1  ZINC000077537368   -0.1000
     26 C26        -9.9900   -0.9231   59.4423 C.3     1  ZINC000077537368    0.0400
     27 C27        -9.6644    0.4277   60.0776 C.3     1  ZINC000077537368    0.1200
     28 H28       -12.2443    3.7008   57.1795 H       1  ZINC000077537368    0.0800
     29 H29       -11.0882    2.9356   56.0632 H       1  ZINC000077537368    0.1000
     30 H30       -11.7935    1.9928   57.3981 H       1  ZINC000077537368    0.1100
     31 H31        -6.2388    3.5825   57.2384 H       1  ZINC000077537368    0.0600
     32 H32        -5.1036    4.5929   58.1652 H       1  ZINC000077537368    0.0600
     33 H33        -5.9877    3.2766   58.9738 H       1  ZINC000077537368    0.0600
     34 H34        -8.0740    6.7881   57.7006 H       1  ZINC000077537368    0.0600
     35 H35        -6.3220    6.6436   57.4217 H       1  ZINC000077537368    0.0600
     36 H36        -7.4572    5.6332   56.4949 H       1  ZINC000077537368    0.0600
     37 H37        -6.8536    4.8977   60.6663 H       1  ZINC000077537368    0.0600
     38 H38        -5.9695    6.2141   59.8576 H       1  ZINC000077537368    0.0600
     39 H39        -7.7216    6.3587   60.1366 H       1  ZINC000077537368    0.0600
     40 H40        -8.6249    3.6329   60.7248 H       1  ZINC000077537368    0.1700
     41 H41       -11.4603    0.1363   62.2859 H       1  ZINC000077537368    0.0800
     42 H42       -12.8154    0.8466   61.3695 H       1  ZINC000077537368    0.1200
     43 H43       -12.7327   -1.6761   61.2438 H       1  ZINC000077537368    0.0900
     44 H44       -12.6247   -0.8834   59.6532 H       1  ZINC000077537368    0.0400
     45 H45       -10.9142   -3.7806   60.6838 H       1  ZINC000077537368    0.0900
     46 H46       -12.0178   -3.1646   59.4304 H       1  ZINC000077537368    0.0500
     47 H47       -11.3830   -3.2200   57.1913 H       1  ZINC000077537368    0.1300
     48 H48        -9.7066   -3.7092   55.4594 H       1  ZINC000077537368    0.1300
     49 H49        -6.7023   -4.0748   58.4994 H       1  ZINC000077537368    0.1300
     50 H50        -8.3938   -3.5784   60.2145 H       1  ZINC000077537368    0.1400
     51 H51        -9.0655   -1.4641   59.2409 H       1  ZINC000077537368    0.1000
     52 H52       -10.5286   -0.7623   58.5085 H       1  ZINC000077537368    0.0400
     53 H53        -9.1424    1.0555   59.3556 H       1  ZINC000077537368    0.1000
     54 H54        -9.0379    0.2773   60.9568 H       1  ZINC000077537368    0.0800
@<TRIPOS>BOND
     1     1     2    1
     2     1    28    1
     3     1    29    1
     4     1    30    1
     5     2    10    1
     6     2     3    1
     7     3     4    2
     8     4     5    1
     9     4     9    1
    10     5     6    1
    11     5     7    1
    12     5     8    1
    13     6    31    1
    14     6    32    1
    15     6    33    1
    16     7    34    1
    17     7    35    1
    18     7    36    1
    19     8    37    1
    20     8    38    1
    21     8    39    1
    22     9    10    2
    23     9    40    1
    24    10    11    1
    25    11    12    2
    26    11    13   am
    27    13    27    1
    28    13    14    1
    29    14    15    1
    30    14    41    1
    31    14    42    1
    32    15    16    1
    33    15    43    1
    34    15    44    1
    35    16    17    1
    36    16    26    1
    37    17    18    1
    38    17    45    1
    39    17    46    1
    40    18    25   ar
    41    18    19   ar
    42    19    20   ar
    43    19    47    1
    44    20    21   ar
    45    20    48    1
    46    21    22    1
    47    21    24   ar
    48    22    23    3
    49    24    25   ar
    50    24    49    1
    51    25    50    1
    52    26    27    1
    53    26    51    1
    54    26    52    1
    55    27    53    1
    56    27    54    1
@<TRIPOS>SUBSTRUCTURE
     1 ZINC000077537368        1 TEMP              0 ****  ****    0 ROOT


##########                                Name:    ZINC000004313955
##########                DOCK_Rotatable_Bonds:                   6
##########                         Heavy_Atoms:                  26
##########                    Molecular_Weight:             414.358
##########                DOCK_Rotatable_Bonds:                   6
##########                       Formal_Charge:           0.0299997
##########                     HBond_Acceptors:                   9
##########                        HBond_Donors:                   2
##########                         Heavy_Atoms:                  26
##########                          Grid_Score:          -27.654488
##########                     Grid_vdw_energy:          -26.834835
##########                      Grid_es_energy:           -0.819652
##########           Internal_energy_repulsive:           11.067386

@<TRIPOS>MOLECULE
ZINC000004313955
 47 49 1 0 0
SMALL
USER_CHARGES


@<TRIPOS>ATOM
      1 C1        -13.6312   -1.0584   54.9318 C.3     1  ZINC000004313955   -0.1500
      2 C2        -13.4423   -1.3341   56.4250 C.3     1  ZINC000004313955   -0.1100
      3 H3        -12.4897   -0.9189   56.7539 H       1  ZINC000004313955    0.0800
      4 C4        -13.4534   -2.8446   56.6709 C.3     1  ZINC000004313955   -0.1100
      5 C5        -13.2318   -3.1224   58.1595 C.3     1  ZINC000004313955   -0.1100
      6 H6        -13.2164   -4.1988   58.3303 H       1  ZINC000004313955    0.0900
      7 C7        -11.8972   -2.5166   58.5988 C.3     1  ZINC000004313955   -0.1500
      8 C8        -14.3707   -2.4926   58.9675 C.3     1  ZINC000004313955    0.1200
      9 N9        -14.4598   -1.0662   58.6266 N.am    1  ZINC000004313955   -0.6000
     10 C10       -14.4280   -0.1261   59.5919 C.2     1  ZINC000004313955    0.5400
     11 O11       -14.3265   -0.4546   60.7550 O.2     1  ZINC000004313955   -0.5300
     12 C12       -14.5187    1.3330   59.2260 C.3     1  ZINC000004313955   -0.1400
     13 S13       -14.4544    2.3372   60.7305 S.3     1  ZINC000004313955    0.0800
     14 C14       -12.7496    2.1644   61.1410 C.2     1  ZINC000004313955    0.1100
     15 N15       -11.7285    2.5507   60.4095 N.2     1  ZINC000004313955   -0.2800
     16 N16       -10.6261    2.2723   61.0082 N.2     1  ZINC000004313955   -0.2400
     17 C17       -10.8753    1.6913   62.1588 C.2     1  ZINC000004313955    0.2500
     18 C18        -9.8750    1.2195   63.1396 C.ar    1  ZINC000004313955   -0.0100
     19 C19        -9.8024    1.8064   64.4037 C.ar    1  ZINC000004313955   -0.0700
     20 C20        -8.8668    1.3621   65.3148 C.ar    1  ZINC000004313955   -0.1100
     21 C21        -8.0001    0.3361   64.9779 C.ar    1  ZINC000004313955   -0.0100
     22 Cl22       -6.8254   -0.2166   66.1304 Cl      1  ZINC000004313955   -0.0500
     23 C23        -8.0667   -0.2512   63.7257 C.ar    1  ZINC000004313955   -0.1100
     24 C24        -9.0023    0.1806   62.8071 C.ar    1  ZINC000004313955    0.0100
     25 Cl25       -9.0849   -0.5563   61.2374 Cl      1  ZINC000004313955   -0.0100
     26 N26       -12.2431    1.6092   62.2817 N.pl3   1  ZINC000004313955   -0.3000
     27 N27       -12.9477    1.0762   63.3236 N.3     1  ZINC000004313955   -0.5800
     28 C28       -14.5832   -0.6833   57.2134 C.3     1  ZINC000004313955    0.1100
     29 H29       -13.6244    0.0175   54.7573 H       1  ZINC000004313955    0.0600
     30 H30       -12.8200   -1.5226   54.3712 H       1  ZINC000004313955    0.0600
     31 H31       -14.5840   -1.4738   54.6034 H       1  ZINC000004313955    0.0600
     32 H32       -14.4153   -3.2554   56.3641 H       1  ZINC000004313955    0.0700
     33 H33       -12.6576   -3.3126   56.0916 H       1  ZINC000004313955    0.0700
     34 H34       -11.9134   -1.4400   58.4288 H       1  ZINC000004313955    0.0600
     35 H35       -11.7398   -2.7147   59.6590 H       1  ZINC000004313955    0.0600
     36 H36       -11.0878   -2.9634   58.0215 H       1  ZINC000004313955    0.0600
     37 H37       -15.3104   -2.9867   58.7208 H       1  ZINC000004313955    0.0700
     38 H38       -14.1667   -2.6016   60.0327 H       1  ZINC000004313955    0.1000
     39 H39       -13.6840    1.5972   58.5768 H       1  ZINC000004313955    0.1300
     40 H40       -15.4576    1.5191   58.7047 H       1  ZINC000004313955    0.1300
     41 H41       -10.4772    2.6072   64.6680 H       1  ZINC000004313955    0.1600
     42 H42        -8.8099    1.8157   66.2934 H       1  ZINC000004313955    0.1500
     43 H43        -7.3881   -1.0510   63.4686 H       1  ZINC000004313955    0.1500
     44 H44       -13.4849    0.2761   63.0251 H       1  ZINC000004313955    0.3700
     45 H45       -12.3353    0.8356   64.0886 H       1  ZINC000004313955    0.3800
     46 H46       -14.5199    0.4010   57.1218 H       1  ZINC000004313955    0.0900
     47 H47       -15.5402   -1.0297   56.8232 H       1  ZINC000004313955    0.0800
@<TRIPOS>BOND
     1     1     2    1
     2     1    29    1
     3     1    30    1
     4     1    31    1
     5     2     3    1
     6     2    28    1
     7     2     4    1
     8     4     5    1
     9     4    32    1
    10     4    33    1
    11     5     6    1
    12     5     7    1
    13     5     8    1
    14     7    34    1
    15     7    35    1
    16     7    36    1
    17     8     9    1
    18     8    37    1
    19     8    38    1
    20     9    10   am
    21     9    28    1
    22    10    11    2
    23    10    12    1
    24    12    13    1
    25    12    39    1
    26    12    40    1
    27    13    14    1
    28    14    26    1
    29    14    15    2
    30    15    16    1
    31    16    17    2
    32    17    18    1
    33    17    26    1
    34    18    24   ar
    35    18    19   ar
    36    19    20   ar
    37    19    41    1
    38    20    21   ar
    39    20    42    1
    40    21    22    1
    41    21    23   ar
    42    23    24   ar
    43    23    43    1
    44    24    25    1
    45    26    27    1
    46    27    44    1
    47    27    45    1
    48    28    46    1
    49    28    47    1
@<TRIPOS>SUBSTRUCTURE
     1 ZINC000004313955        1 TEMP              0 ****  ****    0 ROOT


##########                                Name:    ZINC000052999724
##########                DOCK_Rotatable_Bonds:                   6
##########                         Heavy_Atoms:                  25
##########                    Molecular_Weight:             398.571
##########                DOCK_Rotatable_Bonds:                   6
##########                       Formal_Charge:           0.0399994
##########                     HBond_Acceptors:                   8
##########                        HBond_Donors:                   1
##########                         Heavy_Atoms:                  25
##########                          Grid_Score:          -27.629795
##########                     Grid_vdw_energy:          -26.148819
##########                      Grid_es_energy:           -1.480977
##########           Internal_energy_repulsive:           14.825370

@<TRIPOS>MOLECULE
ZINC000052999724
 47 49 1 0 0
SMALL
USER_CHARGES


@<TRIPOS>ATOM
      1 C1         -8.9938    2.2860   64.9050 C.3     1  ZINC000052999724   -0.1400
      2 C2        -10.3743    2.7839   64.4723 C.3     1  ZINC000052999724   -0.0400
      3 C3        -10.9596    3.6788   65.5665 C.3     1  ZINC000052999724   -0.1400
      4 C4        -10.2463    3.5717   63.1941 C.2     1  ZINC000052999724   -0.0400
      5 C5        -11.1000    3.4313   62.1363 C.2     1  ZINC000052999724   -0.2600
      6 C6        -12.2439    2.5164   62.0826 C.2     1  ZINC000052999724    0.6000
      7 O7        -13.3145    2.8524   62.5539 O.2     1  ZINC000052999724   -0.5200
      8 N8        -12.1102    1.3030   61.5111 N.am    1  ZINC000052999724   -0.6000
      9 C9        -13.2491    0.3774   61.4442 C.3     1  ZINC000052999724    0.1100
     10 C10       -13.4439   -0.0604   59.9892 C.3     1  ZINC000052999724   -0.1400
     11 C11       -12.1317   -0.6388   59.4547 C.3     1  ZINC000052999724    0.1500
     12 N12       -12.3234   -1.0889   58.0738 N.am    1  ZINC000052999724   -1.1100
     13 S13       -12.1551   -2.6921   57.6946 S.o2    1  ZINC000052999724    2.7200
     14 O14       -13.0106   -3.4051   58.5772 O.2     1  ZINC000052999724   -0.9500
     15 O15       -12.2493   -2.7818   56.2795 O.2     1  ZINC000052999724   -0.9400
     16 C16       -10.5082   -3.1573   58.1142 C.2     1  ZINC000052999724   -0.8000
     17 C17        -9.6272   -3.7061   57.2765 C.2     1  ZINC000052999724    0.0100
     18 C18        -8.3908   -3.9868   57.8320 C.2     1  ZINC000052999724   -0.1600
     19 C19        -8.2678   -3.6659   59.1209 C.2     1  ZINC000052999724   -0.1700
     20 S20        -9.7721   -2.9617   59.6995 S.3     1  ZINC000052999724    0.2100
     21 C21       -11.0444    0.4375   59.4939 C.3     1  ZINC000052999724   -0.1500
     22 C22       -10.8241    0.8833   60.9379 C.3     1  ZINC000052999724    0.1100
     23 S23       -10.6068    4.5245   60.8505 S.3     1  ZINC000052999724    0.2100
     24 C24        -9.3008    5.1057   61.7818 C.2     1  ZINC000052999724   -0.2400
     25 C25        -9.2624    4.5072   62.9781 C.2     1  ZINC000052999724   -0.1300
     26 H26        -8.5768    1.6483   64.1255 H       1  ZINC000052999724    0.0600
     27 H27        -8.3347    3.1386   65.0681 H       1  ZINC000052999724    0.0600
     28 H28        -9.0865    1.7161   65.8296 H       1  ZINC000052999724    0.0600
     29 H29       -11.0334    1.9312   64.3092 H       1  ZINC000052999724    0.0800
     30 H30       -10.3005    4.5316   65.7297 H       1  ZINC000052999724    0.0600
     31 H31       -11.9431    4.0336   65.2583 H       1  ZINC000052999724    0.0600
     32 H32       -11.0522    3.1091   66.4911 H       1  ZINC000052999724    0.0600
     33 H33       -13.0473   -0.4957   62.0646 H       1  ZINC000052999724    0.0800
     34 H34       -14.1495    0.8796   61.7983 H       1  ZINC000052999724    0.0900
     35 H35       -14.2236   -0.8204   59.9391 H       1  ZINC000052999724    0.0900
     36 H36       -13.7346    0.7998   59.3862 H       1  ZINC000052999724    0.0800
     37 H37       -11.8286   -1.4835   60.0733 H       1  ZINC000052999724    0.0900
     38 H38       -12.5488   -0.4479   57.3816 H       1  ZINC000052999724    0.4200
     39 H39        -9.8609   -3.9159   56.2432 H       1  ZINC000052999724    0.1600
     40 H40        -7.5868   -4.4323   57.2650 H       1  ZINC000052999724    0.1500
     41 H41        -7.3791   -3.8125   59.7169 H       1  ZINC000052999724    0.1800
     42 H42       -10.1162    0.0318   59.0914 H       1  ZINC000052999724    0.1000
     43 H43       -11.3577    1.2931   58.8955 H       1  ZINC000052999724    0.0800
     44 H44       -10.1230    1.7177   60.9597 H       1  ZINC000052999724    0.1000
     45 H45       -10.4249    0.0527   61.5199 H       1  ZINC000052999724    0.0800
     46 H46        -8.6008    5.8589   61.4515 H       1  ZINC000052999724    0.1700
     47 H47        -8.5087    4.7366   63.7168 H       1  ZINC000052999724    0.1400
@<TRIPOS>BOND
     1     1     2    1
     2     1    26    1
     3     1    27    1
     4     1    28    1
     5     2     3    1
     6     2     4    1
     7     2    29    1
     8     3    30    1
     9     3    31    1
    10     3    32    1
    11     4    25    1
    12     4     5    2
    13     5     6    1
    14     5    23    1
    15     6     7    2
    16     6     8   am
    17     8    22    1
    18     8     9    1
    19     9    10    1
    20     9    33    1
    21     9    34    1
    22    10    11    1
    23    10    35    1
    24    10    36    1
    25    11    12    1
    26    11    21    1
    27    11    37    1
    28    12    13   am
    29    12    38    1
    30    13    14    2
    31    13    15    2
    32    13    16    1
    33    16    20    1
    34    16    17    2
    35    17    18    1
    36    17    39    1
    37    18    19    2
    38    18    40    1
    39    19    20    1
    40    19    41    1
    41    21    22    1
    42    21    42    1
    43    21    43    1
    44    22    44    1
    45    22    45    1
    46    23    24    1
    47    24    25    2
    48    24    46    1
    49    25    47    1
@<TRIPOS>SUBSTRUCTURE
     1 ZINC000052999724        1 TEMP              0 ****  ****    0 ROOT


##########                                Name:    ZINC001082278299
##########                DOCK_Rotatable_Bonds:                   9
##########                         Heavy_Atoms:                  25
##########                    Molecular_Weight:              346.47
##########                DOCK_Rotatable_Bonds:                   9
##########                       Formal_Charge:           0.0200001
##########                     HBond_Acceptors:                   5
##########                        HBond_Donors:                   1
##########                         Heavy_Atoms:                  25
##########                          Grid_Score:          -27.596924
##########                     Grid_vdw_energy:          -29.076284
##########                      Grid_es_energy:            1.479362
##########           Internal_energy_repulsive:          117.573578

@<TRIPOS>MOLECULE
ZINC001082278299
 55 57 1 0 0
SMALL
USER_CHARGES


@<TRIPOS>ATOM
      1 C1        -12.0443    3.4735   64.0655 C.3     1  ZINC001082278299   -0.1300
      2 C2        -11.7597    2.3148   63.1450 C.2     1  ZINC001082278299    0.0000
      3 C3        -10.5057    1.9244   62.9355 C.2     1  ZINC001082278299   -0.2300
      4 C4        -10.2278    0.7933   62.0371 C.2     1  ZINC001082278299    0.5400
      5 O5         -9.3412    0.0059   62.3070 O.2     1  ZINC001082278299   -0.5300
      6 N6        -10.9559    0.6294   60.9147 N.am    1  ZINC001082278299   -0.7400
      7 C7        -10.6779   -0.4961   60.0191 C.3     1  ZINC001082278299    0.1300
      8 C8        -11.9460   -0.8542   59.2416 C.3     1  ZINC001082278299    0.1400
      9 H9        -12.2575   -0.0018   58.6380 H       1  ZINC001082278299    0.0800
     10 C10       -13.0627   -1.2243   60.2228 C.3     1  ZINC001082278299   -0.1300
     11 C11       -14.2827   -1.7146   59.4396 C.3     1  ZINC001082278299   -0.1200
     12 C12       -13.9089   -2.9644   58.6397 C.3     1  ZINC001082278299   -0.1400
     13 C13       -12.8018   -2.6142   57.6405 C.3     1  ZINC001082278299    0.1100
     14 N14       -11.6795   -2.0052   58.3681 N.am    1  ZINC001082278299   -0.6100
     15 C15       -10.4310   -2.4965   58.2404 C.2     1  ZINC001082278299    0.5100
     16 O16        -9.5132   -1.9850   58.8461 O.2     1  ZINC001082278299   -0.5100
     17 C17       -10.1753   -3.6813   57.3449 C.3     1  ZINC001082278299   -0.1100
     18 C18        -8.7228   -3.7037   56.9439 C.2     1  ZINC001082278299   -0.0900
     19 C19        -8.4218   -3.6336   55.6813 C.2     1  ZINC001082278299   -0.1800
     20 C20        -7.0065   -3.6574   55.1781 C.3     1  ZINC001082278299    0.0900
     21 O21        -6.0985   -3.4016   56.2514 O.3     1  ZINC001082278299   -0.3800
     22 C22        -6.3412   -4.2248   57.3990 C.3     1  ZINC001082278299    0.0600
     23 C23        -7.6768   -3.8002   58.0200 C.3     1  ZINC001082278299   -0.1100
     24 C24       -12.8960    1.5984   62.4619 C.3     1  ZINC001082278299   -0.1200
     25 C25       -14.2397    2.3251   62.3764 C.3     1  ZINC001082278299   -0.1900
     26 C26       -13.3796    2.1569   61.1221 C.3     1  ZINC001082278299   -0.1500
     27 H27       -12.0439    4.4010   63.4929 H       1  ZINC001082278299    0.0800
     28 H28       -13.0193    3.3355   64.5327 H       1  ZINC001082278299    0.0800
     29 H29       -11.2755    3.5223   64.8367 H       1  ZINC001082278299    0.0700
     30 H30        -9.6914    2.4378   63.4251 H       1  ZINC001082278299    0.1300
     31 H31       -11.6638    1.2568   60.7000 H       1  ZINC001082278299    0.3900
     32 H32        -9.8894   -0.2178   59.3198 H       1  ZINC001082278299    0.0900
     33 H33       -10.3562   -1.3565   60.6059 H       1  ZINC001082278299    0.0800
     34 H34       -12.7155   -2.0150   60.8878 H       1  ZINC001082278299    0.0700
     35 H35       -13.3358   -0.3479   60.8105 H       1  ZINC001082278299    0.0800
     36 H36       -15.0875   -1.9552   60.1343 H       1  ZINC001082278299    0.0700
     37 H37       -14.6144   -0.9322   58.7569 H       1  ZINC001082278299    0.0700
     38 H38       -13.5538   -3.7389   59.3195 H       1  ZINC001082278299    0.0700
     39 H39       -14.7843   -3.3266   58.1005 H       1  ZINC001082278299    0.0800
     40 H40       -12.4630   -3.5202   57.1379 H       1  ZINC001082278299    0.0900
     41 H41       -13.1842   -1.9069   56.9045 H       1  ZINC001082278299    0.0700
     42 H42       -10.4191   -4.5996   57.8790 H       1  ZINC001082278299    0.1000
     43 H43       -10.7973   -3.6036   56.4531 H       1  ZINC001082278299    0.1000
     44 H44        -9.2242   -3.5552   54.9627 H       1  ZINC001082278299    0.1100
     45 H45        -6.7921   -4.6362   54.7488 H       1  ZINC001082278299    0.0600
     46 H46        -6.8830   -2.8935   54.4104 H       1  ZINC001082278299    0.1000
     47 H47        -6.3884   -5.2711   57.0970 H       1  ZINC001082278299    0.0600
     48 H48        -5.5400   -4.0877   58.1252 H       1  ZINC001082278299    0.1000
     49 H49        -7.5589   -2.8327   58.5081 H       1  ZINC001082278299    0.0800
     50 H50        -7.9871   -4.5421   58.7558 H       1  ZINC001082278299    0.0800
     51 H51       -12.9160    0.5164   62.5929 H       1  ZINC001082278299    0.1300
     52 H52       -15.1440    1.7213   62.4511 H       1  ZINC001082278299    0.1000
     53 H53       -14.3017    3.3214   62.8141 H       1  ZINC001082278299    0.1000
     54 H54       -12.8759    3.0426   60.7348 H       1  ZINC001082278299    0.0900
     55 H55       -13.7182    1.4426   60.3718 H       1  ZINC001082278299    0.1000
@<TRIPOS>BOND
     1     1     2    1
     2     1    27    1
     3     1    28    1
     4     1    29    1
     5     2     3    2
     6     2    24    1
     7     3     4    1
     8     3    30    1
     9     4     5    2
    10     4     6   am
    11     6     7    1
    12     6    31    1
    13     7     8    1
    14     7    32    1
    15     7    33    1
    16     8     9    1
    17     8    14    1
    18     8    10    1
    19    10    11    1
    20    10    34    1
    21    10    35    1
    22    11    12    1
    23    11    36    1
    24    11    37    1
    25    12    13    1
    26    12    38    1
    27    12    39    1
    28    13    14    1
    29    13    40    1
    30    13    41    1
    31    14    15   am
    32    15    16    2
    33    15    17    1
    34    17    18    1
    35    17    42    1
    36    17    43    1
    37    18    23    1
    38    18    19    2
    39    19    20    1
    40    19    44    1
    41    20    21    1
    42    20    45    1
    43    20    46    1
    44    21    22    1
    45    22    23    1
    46    22    47    1
    47    22    48    1
    48    23    49    1
    49    23    50    1
    50    24    26    1
    51    24    25    1
    52    24    51    1
    53    25    26    1
    54    25    52    1
    55    25    53    1
    56    26    54    1
    57    26    55    1
@<TRIPOS>SUBSTRUCTURE
     1 ZINC001082278299        1 TEMP              0 ****  ****    0 ROOT


##########                                Name:    ZINC001122903793
##########                DOCK_Rotatable_Bonds:                   4
##########                         Heavy_Atoms:                  25
##########                    Molecular_Weight:             399.968
##########                DOCK_Rotatable_Bonds:                   4
##########                       Formal_Charge:           0.0100003
##########                     HBond_Acceptors:                   9
##########                        HBond_Donors:                   0
##########                         Heavy_Atoms:                  25
##########                          Grid_Score:          -27.592640
##########                     Grid_vdw_energy:          -26.901825
##########                      Grid_es_energy:           -0.690815
##########           Internal_energy_repulsive:           22.436092

@<TRIPOS>MOLECULE
ZINC001122903793
 47 50 1 0 0
SMALL
USER_CHARGES


@<TRIPOS>ATOM
      1 C1        -13.3118   -2.5674   59.4709 C.3     1  ZINC001122903793   -0.1400
      2 C2        -11.9313   -1.9317   59.2939 C.3     1  ZINC001122903793   -0.0400
      3 H3        -11.7771   -1.6773   58.2453 H       1  ZINC001122903793    0.1000
      4 S4        -10.6465   -3.1002   59.8347 S.3     1  ZINC001122903793   -0.2500
      5 C5         -9.1548   -2.0598   59.8018 C.3     1  ZINC001122903793   -0.0800
      6 C6         -9.4383   -0.7780   60.5926 C.3     1  ZINC001122903793    0.0700
      7 N7        -10.5276   -0.0324   59.9579 N.3     1  ZINC001122903793   -0.4800
      8 C8        -10.5458    1.2837   60.3897 C.2     1  ZINC001122903793    0.3700
      9 N9        -10.4826    2.3526   59.6305 N.2     1  ZINC001122903793   -0.2900
     10 N10       -10.5245    3.4133   60.3547 N.2     1  ZINC001122903793   -0.2400
     11 C11       -10.6174    3.0857   61.6246 C.2     1  ZINC001122903793    0.2600
     12 C12       -10.6898    4.0134   62.7653 C.2     1  ZINC001122903793   -0.1600
     13 C13        -9.7533    4.9285   63.1105 C.2     1  ZINC001122903793    0.1600
     14 Cl14       -8.2763    5.1476   62.2250 Cl      1  ZINC001122903793    0.0300
     15 N15       -10.0599    5.6365   64.1746 N.2     1  ZINC001122903793   -0.4600
     16 C16       -11.1881    5.3828   64.7502 C.2     1  ZINC001122903793    0.0300
     17 S17       -12.0142    4.1369   63.9210 S.3     1  ZINC001122903793    0.2200
     18 N18       -10.6388    1.7103   61.6847 N.pl3   1  ZINC001122903793   -0.4600
     19 C19       -10.7340    0.8779   62.8866 C.3     1  ZINC001122903793    0.1100
     20 C20        -9.3367    0.6678   63.4733 C.3     1  ZINC001122903793    0.0700
     21 H21        -8.5753    0.9377   62.7416 H       1  ZINC001122903793    0.0800
     22 C22        -9.1637    1.5073   64.7641 C.3     1  ZINC001122903793   -0.1500
     23 C23        -8.0568    0.6995   65.4950 C.3     1  ZINC001122903793   -0.1500
     24 C24        -8.3866   -0.7523   65.0862 C.3     1  ZINC001122903793    0.0500
     25 O25        -9.1694   -0.6978   63.8863 O.3     1  ZINC001122903793   -0.3700
     26 C26       -11.8343   -0.6649   60.1508 C.3     1  ZINC001122903793    0.1000
     27 H27       -11.9557   -0.9327   61.2004 H       1  ZINC001122903793    0.0800
     28 C28       -12.9378    0.3143   59.7452 C.3     1  ZINC001122903793   -0.1500
     29 H29       -14.0799   -1.8626   59.1527 H       1  ZINC001122903793    0.0800
     30 H30       -13.3755   -3.4719   58.8658 H       1  ZINC001122903793    0.0700
     31 H31       -13.4632   -2.8208   60.5201 H       1  ZINC001122903793    0.0700
     32 H32        -8.3239   -2.5964   60.2597 H       1  ZINC001122903793    0.1200
     33 H33        -8.9074   -1.8069   58.7709 H       1  ZINC001122903793    0.0900
     34 H34        -9.7229   -1.0371   61.6124 H       1  ZINC001122903793    0.0700
     35 H35        -8.5408   -0.1599   60.6143 H       1  ZINC001122903793    0.0900
     36 H36       -11.5592    5.8894   65.6288 H       1  ZINC001122903793    0.2100
     37 H37       -11.3665    1.3738   63.6228 H       1  ZINC001122903793    0.1200
     38 H38       -11.1678   -0.0876   62.6263 H       1  ZINC001122903793    0.1000
     39 H39        -8.8255    2.5174   64.5334 H       1  ZINC001122903793    0.0900
     40 H40       -10.0850    1.5268   65.3464 H       1  ZINC001122903793    0.0800
     41 H41        -7.0676    0.9874   65.1393 H       1  ZINC001122903793    0.0800
     42 H42        -8.1337    0.8253   66.5750 H       1  ZINC001122903793    0.0900
     43 H43        -7.4643   -1.3025   64.8996 H       1  ZINC001122903793    0.0700
     44 H44        -8.9554   -1.2393   65.8782 H       1  ZINC001122903793    0.0700
     45 H45       -12.8158    0.5850   58.6963 H       1  ZINC001122903793    0.0600
     46 H46       -13.9110   -0.1554   59.8883 H       1  ZINC001122903793    0.0800
     47 H47       -12.8728    1.2107   60.3617 H       1  ZINC001122903793    0.0600
@<TRIPOS>BOND
     1     1     2    1
     2     1    29    1
     3     1    30    1
     4     1    31    1
     5     2     3    1
     6     2    26    1
     7     2     4    1
     8     4     5    1
     9     5     6    1
    10     5    32    1
    11     5    33    1
    12     6     7    1
    13     6    34    1
    14     6    35    1
    15     7     8    1
    16     7    26    1
    17     8    18    1
    18     8     9    2
    19     9    10    1
    20    10    11    2
    21    11    12    1
    22    11    18    1
    23    12    17    1
    24    12    13    2
    25    13    14    1
    26    13    15    1
    27    15    16    2
    28    16    17    1
    29    16    36    1
    30    18    19    1
    31    19    20    1
    32    19    37    1
    33    19    38    1
    34    20    21    1
    35    20    25    1
    36    20    22    1
    37    22    23    1
    38    22    39    1
    39    22    40    1
    40    23    24    1
    41    23    41    1
    42    23    42    1
    43    24    25    1
    44    24    43    1
    45    24    44    1
    46    26    27    1
    47    26    28    1
    48    28    45    1
    49    28    46    1
    50    28    47    1
@<TRIPOS>SUBSTRUCTURE
     1 ZINC001122903793        1 TEMP              0 ****  ****    0 ROOT


##########                                Name:    ZINC000863216249
##########                DOCK_Rotatable_Bonds:                   5
##########                         Heavy_Atoms:                  23
##########                    Molecular_Weight:             396.351
##########                DOCK_Rotatable_Bonds:                   5
##########                       Formal_Charge:         -0.00999944
##########                     HBond_Acceptors:                   5
##########                        HBond_Donors:                   1
##########                         Heavy_Atoms:                  23
##########                          Grid_Score:          -27.554392
##########                     Grid_vdw_energy:          -24.489328
##########                      Grid_es_energy:           -3.065063
##########           Internal_energy_repulsive:           26.135450

@<TRIPOS>MOLECULE
ZINC000863216249
 45 48 1 0 0
SMALL
USER_CHARGES


@<TRIPOS>ATOM
      1 S1        -13.2988    0.6184   61.8785 S.2     1  ZINC000863216249   -0.5900
      2 C2        -12.1411   -0.3696   61.0948 C.2     1  ZINC000863216249    0.5600
      3 N3        -10.8521   -0.3381   61.4871 N.am    1  ZINC000863216249   -0.6800
      4 C4        -10.4405    0.5462   62.5801 C.3     1  ZINC000863216249    0.1200
      5 C5         -9.8606    1.8379   62.0003 C.3     1  ZINC000863216249    0.0400
      6 N6        -10.9477    2.7938   61.7505 N.3     1  ZINC000863216249   -0.5300
      7 C7        -10.5940    3.7226   60.6672 C.3     1  ZINC000863216249    0.0000
      8 C8        -11.7746    4.6601   60.4003 C.3     1  ZINC000863216249    0.0600
      9 O9        -12.1171    5.3434   61.6090 O.3     1  ZINC000863216249   -0.3800
     10 C10       -12.4676    4.4690   62.6851 C.3     1  ZINC000863216249    0.0600
     11 C11       -11.2940    3.5296   62.9752 C.3     1  ZINC000863216249    0.0200
     12 N12       -12.5197   -1.1833   60.0891 N.am    1  ZINC000863216249   -0.5100
     13 C13       -13.8886   -1.3047   59.5752 C.3     1  ZINC000863216249    0.1200
     14 C14       -13.7971   -2.3414   58.4512 C.3     1  ZINC000863216249   -0.1100
     15 C15       -14.9179   -3.3413   58.1945 C.3     1  ZINC000863216249   -0.1500
     16 C16       -14.6382   -2.2234   57.1861 C.3     1  ZINC000863216249   -0.1500
     17 C17       -12.3465   -2.7468   58.4040 C.ar    1  ZINC000863216249   -0.0700
     18 C18       -11.6746   -3.6440   57.5964 C.ar    1  ZINC000863216249   -0.0800
     19 C19       -10.3156   -3.8409   57.7555 C.ar    1  ZINC000863216249   -0.1000
     20 C20        -9.6273   -3.1364   58.7269 C.ar    1  ZINC000863216249   -0.0700
     21 Br21       -7.7681   -3.4034   58.9460 Br      1  ZINC000863216249   -0.0400
     22 C22       -10.2935   -2.2393   59.5361 C.ar    1  ZINC000863216249   -0.0900
     23 C23       -11.6643   -2.0313   59.3782 C.ar    1  ZINC000863216249    0.1400
     24 H24       -10.1968   -0.9008   61.0456 H       1  ZINC000863216249    0.4000
     25 H25       -11.3045    0.7825   63.2013 H       1  ZINC000863216249    0.0900
     26 H26        -9.6835    0.0476   63.1854 H       1  ZINC000863216249    0.1000
     27 H27        -9.1535    2.2689   62.7091 H       1  ZINC000863216249    0.0900
     28 H28        -9.3480    1.6177   61.0639 H       1  ZINC000863216249    0.0400
     29 H29        -9.7229    4.3086   60.9602 H       1  ZINC000863216249    0.0500
     30 H30       -10.3662    3.1577   59.7633 H       1  ZINC000863216249    0.1000
     31 H31       -11.4965    5.3872   59.6374 H       1  ZINC000863216249    0.1000
     32 H32       -12.6300    4.0791   60.0557 H       1  ZINC000863216249    0.0600
     33 H33       -12.6909    5.0580   63.5747 H       1  ZINC000863216249    0.1000
     34 H34       -13.3432    3.8825   62.4069 H       1  ZINC000863216249    0.0600
     35 H35       -11.5773    2.8239   63.7561 H       1  ZINC000863216249    0.0900
     36 H36       -10.4341    4.1125   63.3051 H       1  ZINC000863216249    0.0500
     37 H37       -14.5587   -1.6549   60.3604 H       1  ZINC000863216249    0.0900
     38 H38       -14.2320   -0.3480   59.1814 H       1  ZINC000863216249    0.0900
     39 H39       -14.6335   -4.3554   57.9138 H       1  ZINC000863216249    0.1100
     40 H40       -15.8178   -3.2564   58.8037 H       1  ZINC000863216249    0.1100
     41 H41       -15.3541   -1.4032   57.1322 H       1  ZINC000863216249    0.1100
     42 H42       -14.1699   -2.5022   56.2422 H       1  ZINC000863216249    0.1100
     43 H43       -12.2130   -4.1937   56.8386 H       1  ZINC000863216249    0.1400
     44 H44        -9.7926   -4.5430   57.1231 H       1  ZINC000863216249    0.1400
     45 H45        -9.7507   -1.6925   60.2930 H       1  ZINC000863216249    0.1900
@<TRIPOS>BOND
     1     1     2    2
     2     2     3   am
     3     2    12   am
     4     3     4    1
     5     3    24    1
     6     4     5    1
     7     4    25    1
     8     4    26    1
     9     5     6    1
    10     5    27    1
    11     5    28    1
    12     6    11    1
    13     6     7    1
    14     7     8    1
    15     7    29    1
    16     7    30    1
    17     8     9    1
    18     8    31    1
    19     8    32    1
    20     9    10    1
    21    10    11    1
    22    10    33    1
    23    10    34    1
    24    11    35    1
    25    11    36    1
    26    12    23    1
    27    12    13    1
    28    13    14    1
    29    13    37    1
    30    13    38    1
    31    14    16    1
    32    14    15    1
    33    14    17    1
    34    15    16    1
    35    15    39    1
    36    15    40    1
    37    16    41    1
    38    16    42    1
    39    17    23   ar
    40    17    18   ar
    41    18    19   ar
    42    18    43    1
    43    19    20   ar
    44    19    44    1
    45    20    21    1
    46    20    22   ar
    47    22    23   ar
    48    22    45    1
@<TRIPOS>SUBSTRUCTURE
     1 ZINC000863216249        1 TEMP              0 ****  ****    0 ROOT


##########                                Name:    ZINC000080099940
##########                DOCK_Rotatable_Bonds:                   4
##########                         Heavy_Atoms:                  26
##########                    Molecular_Weight:             343.388
##########                DOCK_Rotatable_Bonds:                   4
##########                       Formal_Charge:        -3.42727e-07
##########                     HBond_Acceptors:                   6
##########                        HBond_Donors:                   1
##########                         Heavy_Atoms:                  26
##########                          Grid_Score:          -27.540474
##########                     Grid_vdw_energy:          -27.875778
##########                      Grid_es_energy:            0.335304
##########           Internal_energy_repulsive:            6.262782

@<TRIPOS>MOLECULE
ZINC000080099940
 43 46 1 0 0
SMALL
USER_CHARGES


@<TRIPOS>ATOM
      1 C1          3.3217    0.5072   51.7444 C.3     1  ZINC000080099940   -0.1100
      2 C2          2.0199    1.1420   52.1609 C.2     1  ZINC000080099940   -0.0700
      3 C3          0.8982    0.9527   51.4154 C.2     1  ZINC000080099940   -0.0900
      4 C4         -0.3108    1.5546   51.8207 C.2     1  ZINC000080099940    0.2300
      5 N5         -1.5284    1.5411   51.2987 N.2     1  ZINC000080099940   -0.4800
      6 C6         -2.3447    2.2784   52.0683 C.2     1  ZINC000080099940    0.1000
      7 C7         -3.7896    2.5133   51.8264 C.ar    1  ZINC000080099940   -0.0200
      8 C8         -4.4444    1.8363   50.7988 C.ar    1  ZINC000080099940   -0.0800
      9 C9         -5.7871    2.0558   50.5760 C.ar    1  ZINC000080099940   -0.1200
     10 C10        -6.4879    2.9517   51.3750 C.ar    1  ZINC000080099940    0.1500
     11 N11        -7.8489    3.1730   51.1471 N.am    1  ZINC000080099940   -0.6500
     12 C12        -8.3047    4.4265   50.9539 C.2     1  ZINC000080099940    0.5700
     13 O13        -7.5325    5.3642   50.9781 O.2     1  ZINC000080099940   -0.5000
     14 C14        -9.7499    4.6615   50.7119 C.ar    1  ZINC000080099940    0.1300
     15 C15       -10.2332    5.9537   50.5036 C.ar    1  ZINC000080099940   -0.1700
     16 C16       -11.5932    6.1187   50.2812 C.ar    1  ZINC000080099940    0.1600
     17 N17       -12.3781    5.0552   50.2743 N.ar    1  ZINC000080099940   -0.5000
     18 C18       -11.8883    3.8469   50.4747 C.ar    1  ZINC000080099940    0.3200
     19 C19       -12.8243    2.6659   50.4572 C.3     1  ZINC000080099940   -0.0900
     20 N20       -10.6059    3.6423   50.6844 N.ar    1  ZINC000080099940   -0.5000
     21 C21        -5.8370    3.6275   52.4005 C.ar    1  ZINC000080099940   -0.1400
     22 C22        -4.4956    3.4071   52.6301 C.ar    1  ZINC000080099940   -0.0700
     23 C23        -1.6192    2.7733   53.1099 C.2     1  ZINC000080099940   -0.0900
     24 N24        -0.3384    2.3202   52.9581 N.pl3   1  ZINC000080099940   -0.3600
     25 C25         0.7953    2.5017   53.6969 C.2     1  ZINC000080099940    0.0600
     26 C26         1.9581    1.9270   53.3241 C.2     1  ZINC000080099940   -0.1400
     27 H27         4.0990    0.7671   52.4631 H       1  ZINC000080099940    0.0700
     28 H28         3.2040   -0.5759   51.7122 H       1  ZINC000080099940    0.0800
     29 H29         3.6039    0.8716   50.7565 H       1  ZINC000080099940    0.0800
     30 H30         0.9333    0.3477   50.5214 H       1  ZINC000080099940    0.1500
     31 H31        -3.9001    1.1406   50.1774 H       1  ZINC000080099940    0.1300
     32 H32        -6.2948    1.5314   49.7800 H       1  ZINC000080099940    0.1400
     33 H33        -8.4653    2.4244   51.1277 H       1  ZINC000080099940    0.4200
     34 H34        -9.5665    6.8032   50.5156 H       1  ZINC000080099940    0.1600
     35 H35       -12.0049    7.1035   50.1163 H       1  ZINC000080099940    0.1800
     36 H36       -12.8976    2.2753   49.4422 H       1  ZINC000080099940    0.0900
     37 H37       -12.4413    1.8890   51.1188 H       1  ZINC000080099940    0.0900
     38 H38       -13.8111    2.9794   50.7980 H       1  ZINC000080099940    0.0900
     39 H39        -6.3834    4.3232   53.0201 H       1  ZINC000080099940    0.1300
     40 H40        -3.9904    3.9322   53.4273 H       1  ZINC000080099940    0.1400
     41 H41        -1.9866    3.4048   53.9052 H       1  ZINC000080099940    0.1900
     42 H42         0.7601    3.1070   54.5905 H       1  ZINC000080099940    0.1700
     43 H43         2.8473    2.0787   53.9182 H       1  ZINC000080099940    0.1500
@<TRIPOS>BOND
     1     1     2    1
     2     1    27    1
     3     1    28    1
     4     1    29    1
     5     2    26    1
     6     2     3    2
     7     3     4    1
     8     3    30    1
     9     4    24    1
    10     4     5    2
    11     5     6    1
    12     6     7    1
    13     6    23    2
    14     7    22   ar
    15     7     8   ar
    16     8     9   ar
    17     8    31    1
    18     9    10   ar
    19     9    32    1
    20    10    11    1
    21    10    21   ar
    22    11    12   am
    23    11    33    1
    24    12    13    2
    25    12    14    1
    26    14    20   ar
    27    14    15   ar
    28    15    16   ar
    29    15    34    1
    30    16    17   ar
    31    16    35    1
    32    17    18   ar
    33    18    19    1
    34    18    20   ar
    35    19    36    1
    36    19    37    1
    37    19    38    1
    38    21    22   ar
    39    21    39    1
    40    22    40    1
    41    23    24    1
    42    23    41    1
    43    24    25    1
    44    25    26    2
    45    25    42    1
    46    26    43    1
@<TRIPOS>SUBSTRUCTURE
     1 ZINC000080099940        1 TEMP              0 ****  ****    0 ROOT


##########                                Name:    ZINC000467185792
##########                DOCK_Rotatable_Bonds:                   9
##########                         Heavy_Atoms:                  29
##########                    Molecular_Weight:             412.513
##########                DOCK_Rotatable_Bonds:                   9
##########                       Formal_Charge:                0.04
##########                     HBond_Acceptors:                   8
##########                        HBond_Donors:                   2
##########                         Heavy_Atoms:                  29
##########                          Grid_Score:          -27.535887
##########                     Grid_vdw_energy:          -27.396757
##########                      Grid_es_energy:           -0.139130
##########           Internal_energy_repulsive:           39.807060

@<TRIPOS>MOLECULE
ZINC000467185792
 53 55 1 0 0
SMALL
USER_CHARGES


@<TRIPOS>ATOM
      1 C1        -13.5612    0.1603   50.8841 C.3     1  ZINC000467185792   -0.1500
      2 C2        -14.9080    0.2376   51.6060 C.3     1  ZINC000467185792   -0.1200
      3 C3        -15.1162    1.6537   52.1466 C.3     1  ZINC000467185792    0.0600
      4 O4        -14.0375    1.9934   53.0202 O.3     1  ZINC000467185792   -0.3100
      5 C5        -14.0344    1.4156   54.2504 C.ar    1  ZINC000467185792    0.1400
      6 C6        -12.9415    1.5805   55.0902 C.ar    1  ZINC000467185792   -0.2100
      7 C7        -12.9354    0.9958   56.3394 C.ar    1  ZINC000467185792   -0.0400
      8 C8        -14.0283    0.2386   56.7583 C.ar    1  ZINC000467185792   -0.0600
      9 C9        -14.0253   -0.3912   58.1014 C.2     1  ZINC000467185792    0.1400
     10 C10       -15.0553   -1.1299   58.5511 C.2     1  ZINC000467185792   -0.3000
     11 S11       -14.6624   -1.6925   60.1742 S.3     1  ZINC000467185792    0.2000
     12 C12       -13.1132   -0.8594   60.0886 C.2     1  ZINC000467185792    0.2800
     13 N13       -12.1550   -0.8415   61.0929 N.am    1  ZINC000467185792   -0.6100
     14 C14       -11.0367   -0.1039   60.9445 C.2     1  ZINC000467185792    0.5900
     15 O15       -10.8672    0.5460   59.9306 O.2     1  ZINC000467185792   -0.4900
     16 C16       -10.0197   -0.0850   62.0106 C.2     1  ZINC000467185792   -0.2400
     17 C17       -10.0417    0.8805   63.0151 C.2     1  ZINC000467185792    0.0800
     18 C18       -11.1102    1.9427   63.0470 C.3     1  ZINC000467185792   -0.1200
     19 C19       -12.2943    1.4502   63.8816 C.3     1  ZINC000467185792   -0.1400
     20 C20        -9.0417    0.8341   63.9940 C.2     1  ZINC000467185792    0.0600
     21 C21        -9.0296    1.8597   65.0983 C.3     1  ZINC000467185792   -0.0600
     22 C22        -7.8797    1.5583   66.0615 C.3     1  ZINC000467185792   -0.1500
     23 N23        -8.1202   -0.0897   63.9591 N.2     1  ZINC000467185792   -0.1800
     24 N24        -8.0706   -0.9926   63.0496 N.am    1  ZINC000467185792   -0.4300
     25 C25        -8.9797   -1.0559   62.0580 C.2     1  ZINC000467185792    0.5000
     26 O26        -8.9070   -1.9257   61.2071 O.2     1  ZINC000467185792   -0.5300
     27 N27       -13.0049   -0.2693   58.9386 N.2     1  ZINC000467185792   -0.5000
     28 C28       -15.1243    0.0749   55.9126 C.ar    1  ZINC000467185792   -0.0600
     29 C29       -15.1265    0.6665   54.6666 C.ar    1  ZINC000467185792   -0.1500
     30 H30       -12.7603    0.4043   51.5820 H       1  ZINC000467185792    0.0600
     31 H31       -13.4128   -0.8486   50.4991 H       1  ZINC000467185792    0.0700
     32 H32       -13.5510    0.8701   50.0569 H       1  ZINC000467185792    0.0600
     33 H33       -15.7089   -0.0063   50.9081 H       1  ZINC000467185792    0.0700
     34 H34       -14.9180   -0.4722   52.4332 H       1  ZINC000467185792    0.0700
     35 H35       -15.1469    2.3589   51.3160 H       1  ZINC000467185792    0.0600
     36 H36       -16.0565    1.6983   52.6961 H       1  ZINC000467185792    0.0600
     37 H37       -12.0950    2.1669   54.7650 H       1  ZINC000467185792    0.1300
     38 H38       -12.0847    1.1242   56.9923 H       1  ZINC000467185792    0.1300
     39 H39       -15.9662   -1.3416   58.0109 H       1  ZINC000467185792    0.1800
     40 H40       -12.2902   -1.3599   61.9016 H       1  ZINC000467185792    0.4400
     41 H41       -10.7055    2.8519   63.4917 H       1  ZINC000467185792    0.0900
     42 H42       -11.4443    2.1528   62.0309 H       1  ZINC000467185792    0.1300
     43 H43       -12.6990    0.5410   63.4369 H       1  ZINC000467185792    0.0600
     44 H44       -11.9602    1.2402   64.8977 H       1  ZINC000467185792    0.0600
     45 H45       -13.0671    2.2186   63.9046 H       1  ZINC000467185792    0.0700
     46 H46        -8.8943    2.8529   64.6702 H       1  ZINC000467185792    0.1000
     47 H47        -9.9754    1.8227   65.6388 H       1  ZINC000467185792    0.1000
     48 H48        -7.8709    2.3001   66.8601 H       1  ZINC000467185792    0.0600
     49 H49        -8.0150    0.5651   66.4895 H       1  ZINC000467185792    0.0600
     50 H50        -6.9339    1.5953   65.5210 H       1  ZINC000467185792    0.0600
     51 H51        -7.3597   -1.6520   63.0792 H       1  ZINC000467185792    0.4500
     52 H52       -15.9723   -0.5114   56.2341 H       1  ZINC000467185792    0.1300
     53 H53       -15.9754    0.5404   54.0111 H       1  ZINC000467185792    0.1400
@<TRIPOS>BOND
     1     1     2    1
     2     1    30    1
     3     1    31    1
     4     1    32    1
     5     2     3    1
     6     2    33    1
     7     2    34    1
     8     3     4    1
     9     3    35    1
    10     3    36    1
    11     4     5    1
    12     5    29   ar
    13     5     6   ar
    14     6     7   ar
    15     6    37    1
    16     7     8   ar
    17     7    38    1
    18     8     9    1
    19     8    28   ar
    20     9    27    1
    21     9    10    2
    22    10    11    1
    23    10    39    1
    24    11    12    1
    25    12    13    1
    26    12    27    2
    27    13    14   am
    28    13    40    1
    29    14    15    2
    30    14    16    1
    31    16    25    1
    32    16    17    2
    33    17    18    1
    34    17    20    1
    35    18    19    1
    36    18    41    1
    37    18    42    1
    38    19    43    1
    39    19    44    1
    40    19    45    1
    41    20    21    1
    42    20    23    2
    43    21    22    1
    44    21    46    1
    45    21    47    1
    46    22    48    1
    47    22    49    1
    48    22    50    1
    49    23    24    1
    50    24    25   am
    51    24    51    1
    52    25    26    2
    53    28    29   ar
    54    28    52    1
    55    29    53    1
@<TRIPOS>SUBSTRUCTURE
     1 ZINC000467185792        1 TEMP              0 ****  ****    0 ROOT


##########                                Name:    ZINC000842947763
##########                DOCK_Rotatable_Bonds:                   7
##########                         Heavy_Atoms:                  24
##########                    Molecular_Weight:             365.373
##########                DOCK_Rotatable_Bonds:                   7
##########                       Formal_Charge:          0.00999997
##########                     HBond_Acceptors:                   9
##########                        HBond_Donors:                   0
##########                         Heavy_Atoms:                  24
##########                          Grid_Score:          -27.533840
##########                     Grid_vdw_energy:          -27.587412
##########                      Grid_es_energy:            0.053572
##########           Internal_energy_repulsive:           33.435291

@<TRIPOS>MOLECULE
ZINC000842947763
 42 43 1 0 0
SMALL
USER_CHARGES


@<TRIPOS>ATOM
      1 C1         -9.4891    3.7721   63.7218 C.3     1  ZINC000842947763   -0.1600
      2 C2         -9.9806    2.5680   64.5276 C.3     1  ZINC000842947763   -0.1000
      3 H3         -9.8014    2.7431   65.5884 H       1  ZINC000842947763    0.1000
      4 C4         -9.2250    1.3140   64.0830 C.3     1  ZINC000842947763    0.0800
      5 O5         -9.6547    0.9379   62.7481 O.3     1  ZINC000842947763   -0.3500
      6 C6         -9.2843   -0.2804   62.3067 C.2     1  ZINC000842947763    0.5200
      7 O7         -8.4001   -0.8897   62.8755 O.2     1  ZINC000842947763   -0.5100
      8 C8         -9.9513   -0.8734   61.1339 C.ar    1  ZINC000842947763   -0.1600
      9 C9        -11.1647   -0.3513   60.6749 C.ar    1  ZINC000842947763   -0.0200
     10 C10       -11.7812   -0.9084   59.5810 C.ar    1  ZINC000842947763   -0.1700
     11 C11       -11.2014   -1.9987   58.9208 C.ar    1  ZINC000842947763    0.2000
     12 C12        -9.9951   -2.5105   59.3847 C.ar    1  ZINC000842947763   -0.1500
     13 C13        -9.3728   -1.9585   60.4687 C.ar    1  ZINC000842947763   -0.0100
     14 C14        -9.5960   -3.6711   58.5001 C.3     1  ZINC000842947763   -0.0800
     15 C15       -10.7257   -3.7683   57.4619 C.3     1  ZINC000842947763    0.1100
     16 N16       -11.6610   -2.6957   57.8099 N.am    1  ZINC000842947763   -0.9400
     17 S17       -13.0645   -2.3622   56.9968 S.o2    1  ZINC000842947763    2.6100
     18 C18       -14.0389   -3.8863   57.1317 C.3     1  ZINC000842947763   -0.6700
     19 O19       -13.6659   -1.3176   57.7494 O.2     1  ZINC000842947763   -0.9300
     20 O20       -12.6501   -2.1526   55.6538 O.2     1  ZINC000842947763   -0.9400
     21 C21       -11.4790    2.3719   64.2890 C.3     1  ZINC000842947763   -0.1600
     22 C22       -12.2443    3.5808   64.8312 C.3     1  ZINC000842947763    0.4600
     23 F23       -12.2420    4.6015   63.8745 F       1  ZINC000842947763   -0.1800
     24 F24       -13.5632    3.2095   65.1139 F       1  ZINC000842947763   -0.1800
     25 F25       -11.6274    4.0369   66.0010 F       1  ZINC000842947763   -0.1800
     26 H26        -9.9224    4.6846   64.1313 H       1  ZINC000842947763    0.0700
     27 H27        -8.4020    3.8284   63.7790 H       1  ZINC000842947763    0.0700
     28 H28        -9.7928    3.6611   62.6808 H       1  ZINC000842947763    0.0600
     29 H29        -8.1543    1.5182   64.0761 H       1  ZINC000842947763    0.0800
     30 H30        -9.4350    0.4988   64.7755 H       1  ZINC000842947763    0.0800
     31 H31       -11.6171    0.4891   61.1803 H       1  ZINC000842947763    0.1500
     32 H32       -12.7182   -0.5034   59.2283 H       1  ZINC000842947763    0.1500
     33 H33        -8.4356   -2.3666   60.8174 H       1  ZINC000842947763    0.1400
     34 H34        -8.6446   -3.4659   58.0094 H       1  ZINC000842947763    0.1000
     35 H35        -9.5343   -4.5902   59.0828 H       1  ZINC000842947763    0.1000
     36 H36       -10.3307   -3.6144   56.4577 H       1  ZINC000842947763    0.1000
     37 H37       -11.2197   -4.7376   57.5302 H       1  ZINC000842947763    0.0900
     38 H38       -14.2209   -4.1092   58.1831 H       1  ZINC000842947763    0.1300
     39 H39       -14.9913   -3.7552   56.6180 H       1  ZINC000842947763    0.1400
     40 H40       -13.4901   -4.7101   56.6753 H       1  ZINC000842947763    0.1300
     41 H41       -11.6669    2.2727   63.2200 H       1  ZINC000842947763    0.1200
     42 H42       -11.8137    1.4702   64.8020 H       1  ZINC000842947763    0.1100
@<TRIPOS>BOND
     1     1     2    1
     2     1    26    1
     3     1    27    1
     4     1    28    1
     5     2     3    1
     6     2     4    1
     7     2    21    1
     8     4     5    1
     9     4    29    1
    10     4    30    1
    11     5     6    1
    12     6     7    2
    13     6     8    1
    14     8    13   ar
    15     8     9   ar
    16     9    10   ar
    17     9    31    1
    18    10    11   ar
    19    10    32    1
    20    11    16    1
    21    11    12   ar
    22    12    13   ar
    23    12    14    1
    24    13    33    1
    25    14    15    1
    26    14    34    1
    27    14    35    1
    28    15    16    1
    29    15    36    1
    30    15    37    1
    31    16    17   am
    32    17    18    1
    33    17    19    2
    34    17    20    2
    35    18    38    1
    36    18    39    1
    37    18    40    1
    38    21    22    1
    39    21    41    1
    40    21    42    1
    41    22    23    1
    42    22    24    1
    43    22    25    1
@<TRIPOS>SUBSTRUCTURE
     1 ZINC000842947763        1 TEMP              0 ****  ****    0 ROOT


##########                                Name:    ZINC001074839487
##########                DOCK_Rotatable_Bonds:                   7
##########                         Heavy_Atoms:                  25
##########                    Molecular_Weight:             344.454
##########                DOCK_Rotatable_Bonds:                   7
##########                       Formal_Charge:          -0.0500005
##########                     HBond_Acceptors:                   5
##########                        HBond_Donors:                   1
##########                         Heavy_Atoms:                  25
##########                          Grid_Score:          -27.493095
##########                     Grid_vdw_energy:          -27.890736
##########                      Grid_es_energy:            0.397641
##########           Internal_energy_repulsive:           98.011604

@<TRIPOS>MOLECULE
ZINC001074839487
 53 55 1 0 0
SMALL
USER_CHARGES


@<TRIPOS>ATOM
      1 C1         -8.9558    3.7824   64.7406 C.3     1  ZINC001074839487   -0.1500
      2 C2         -9.2035    2.2956   64.4779 C.3     1  ZINC001074839487   -0.1300
      3 C3         -9.7382    2.1110   63.0563 C.3     1  ZINC001074839487   -0.1100
      4 C4        -11.0702    2.8500   62.9124 C.3     1  ZINC001074839487   -0.1400
      5 C5        -11.6105    2.6452   61.5206 C.2     1  ZINC001074839487    0.5100
      6 O6        -11.3984    3.4729   60.6599 O.2     1  ZINC001074839487   -0.5400
      7 N7        -12.3293    1.5422   61.2323 N.am    1  ZINC001074839487   -0.7300
      8 C8        -12.8530    1.3423   59.8789 C.3     1  ZINC001074839487    0.1400
      9 H9        -13.2468    2.2850   59.4989 H       1  ZINC001074839487    0.0900
     10 C10       -11.7277    0.8539   58.9636 C.3     1  ZINC001074839487   -0.1500
     11 C11       -11.1539   -0.4531   59.5195 C.3     1  ZINC001074839487    0.0700
     12 N12       -12.2507   -1.4151   59.6932 N.am    1  ZINC001074839487   -0.6000
     13 C13       -12.1819   -2.6422   59.1401 C.2     1  ZINC001074839487    0.5600
     14 O14       -13.0959   -3.4291   59.2912 O.2     1  ZINC001074839487   -0.5200
     15 C15       -10.9947   -3.0313   58.3496 C.ar    1  ZINC001074839487   -0.1300
     16 C16       -11.1333   -3.3926   57.0087 C.ar    1  ZINC001074839487   -0.1000
     17 C17       -10.0215   -3.7551   56.2753 C.ar    1  ZINC001074839487   -0.1000
     18 C18        -8.7734   -3.7606   56.8664 C.ar    1  ZINC001074839487   -0.1100
     19 C19        -7.3969   -4.1004   56.3428 C.3     1  ZINC001074839487    0.0900
     20 O20        -6.5766   -4.3268   57.5036 O.3     1  ZINC001074839487   -0.3600
     21 C21        -7.1598   -3.5111   58.5361 C.3     1  ZINC001074839487    0.0900
     22 C22        -8.6289   -3.4025   58.1996 C.ar    1  ZINC001074839487   -0.1400
     23 C23        -9.7290   -3.0334   58.9402 C.ar    1  ZINC001074839487   -0.0400
     24 C24       -13.4243   -1.0138   60.4808 C.3     1  ZINC001074839487    0.1500
     25 H25       -13.1340   -0.8698   61.5216 H       1  ZINC001074839487    0.0700
     26 C26       -14.4984   -2.0996   60.3904 C.3     1  ZINC001074839487   -0.1400
     27 C27       -13.9727    0.2996   59.9143 C.3     1  ZINC001074839487   -0.1400
     28 H28        -8.2253    4.1608   64.0257 H       1  ZINC001074839487    0.0500
     29 H29        -8.5749    3.9138   65.7534 H       1  ZINC001074839487    0.0500
     30 H30        -9.8908    4.3316   64.6299 H       1  ZINC001074839487    0.0500
     31 H31        -8.2686    1.7463   64.5886 H       1  ZINC001074839487    0.0600
     32 H32        -9.9341    1.9171   65.1928 H       1  ZINC001074839487    0.0600
     33 H33        -9.0199    2.5144   62.3427 H       1  ZINC001074839487    0.0700
     34 H34        -9.8887    1.0494   62.8598 H       1  ZINC001074839487    0.0700
     35 H35       -11.7823    2.4602   63.6397 H       1  ZINC001074839487    0.0900
     36 H36       -10.9160    3.9144   63.0893 H       1  ZINC001074839487    0.0900
     37 H37       -12.4999    0.8808   61.9210 H       1  ZINC001074839487    0.4000
     38 H38       -12.1222    0.6814   57.9624 H       1  ZINC001074839487    0.0800
     39 H39       -10.9412    1.6074   58.9205 H       1  ZINC001074839487    0.0800
     40 H40       -10.4211   -0.8567   58.8208 H       1  ZINC001074839487    0.1200
     41 H41       -10.6784   -0.2634   60.4819 H       1  ZINC001074839487    0.0700
     42 H42       -12.1090   -3.3881   56.5454 H       1  ZINC001074839487    0.1500
     43 H43       -10.1277   -4.0344   55.2375 H       1  ZINC001074839487    0.1400
     44 H44        -7.4396   -5.0017   55.7314 H       1  ZINC001074839487    0.1000
     45 H45        -7.0011   -3.2688   55.7598 H       1  ZINC001074839487    0.0800
     46 H46        -7.0314   -3.9871   59.5082 H       1  ZINC001074839487    0.1000
     47 H47        -6.7008   -2.5224   58.5377 H       1  ZINC001074839487    0.0800
     48 H48        -9.6144   -2.7504   59.9761 H       1  ZINC001074839487    0.1400
     49 H49       -14.1455   -3.0022   60.8894 H       1  ZINC001074839487    0.0800
     50 H50       -15.4103   -1.7497   60.8744 H       1  ZINC001074839487    0.0500
     51 H51       -14.7046   -2.3204   59.3432 H       1  ZINC001074839487    0.0700
     52 H52       -14.7840    0.6584   60.5476 H       1  ZINC001074839487    0.0900
     53 H53       -14.3460    0.1322   58.9040 H       1  ZINC001074839487    0.0900
@<TRIPOS>BOND
     1     1     2    1
     2     1    28    1
     3     1    29    1
     4     1    30    1
     5     2     3    1
     6     2    31    1
     7     2    32    1
     8     3     4    1
     9     3    33    1
    10     3    34    1
    11     4     5    1
    12     4    35    1
    13     4    36    1
    14     5     6    2
    15     5     7   am
    16     7     8    1
    17     7    37    1
    18     8     9    1
    19     8    27    1
    20     8    10    1
    21    10    11    1
    22    10    38    1
    23    10    39    1
    24    11    12    1
    25    11    40    1
    26    11    41    1
    27    12    13   am
    28    12    24    1
    29    13    14    2
    30    13    15    1
    31    15    23   ar
    32    15    16   ar
    33    16    17   ar
    34    16    42    1
    35    17    18   ar
    36    17    43    1
    37    18    22   ar
    38    18    19    1
    39    19    20    1
    40    19    44    1
    41    19    45    1
    42    20    21    1
    43    21    22    1
    44    21    46    1
    45    21    47    1
    46    22    23   ar
    47    23    48    1
    48    24    25    1
    49    24    26    1
    50    24    27    1
    51    26    49    1
    52    26    50    1
    53    26    51    1
    54    27    52    1
    55    27    53    1
@<TRIPOS>SUBSTRUCTURE
     1 ZINC001074839487        1 TEMP              0 ****  ****    0 ROOT


##########                                Name:    ZINC000062291520
##########                DOCK_Rotatable_Bonds:                  10
##########                         Heavy_Atoms:                  29
##########                    Molecular_Weight:             398.502
##########                DOCK_Rotatable_Bonds:                  10
##########                       Formal_Charge:          -0.0100006
##########                     HBond_Acceptors:                   6
##########                        HBond_Donors:                   1
##########                         Heavy_Atoms:                  29
##########                          Grid_Score:          -27.488066
##########                     Grid_vdw_energy:          -27.557026
##########                      Grid_es_energy:            0.068961
##########           Internal_energy_repulsive:           53.251194

@<TRIPOS>MOLECULE
ZINC000062291520
 59 61 1 0 0
SMALL
USER_CHARGES


@<TRIPOS>ATOM
      1 C1         -5.5726    5.6380   56.1910 C.3     1  ZINC000062291520    0.0300
      2 O2         -6.3041    4.8233   55.2727 O.3     1  ZINC000062291520   -0.3100
      3 C3         -5.5883    4.1840   54.3091 C.ar    1  ZINC000062291520    0.1000
      4 C4         -4.2129    4.3368   54.2497 C.ar    1  ZINC000062291520   -0.1700
      5 C5         -3.4873    3.6906   53.2657 C.ar    1  ZINC000062291520   -0.1200
      6 C6         -4.1307    2.8869   52.3436 C.ar    1  ZINC000062291520   -0.1200
      7 C7         -5.5028    2.7251   52.4011 C.ar    1  ZINC000062291520   -0.1700
      8 C8         -6.2356    3.3697   53.3843 C.ar    1  ZINC000062291520    0.1000
      9 O9         -7.5851    3.2115   53.4422 O.3     1  ZINC000062291520   -0.3100
     10 C10        -8.2748    3.8999   54.4875 C.3     1  ZINC000062291520    0.0700
     11 C11        -9.7709    3.5921   54.4004 C.3     1  ZINC000062291520   -0.1400
     12 C12       -10.4096    3.8185   55.7464 C.2     1  ZINC000062291520    0.5200
     13 O13        -9.9076    4.5931   56.5332 O.2     1  ZINC000062291520   -0.5400
     14 N14       -11.5384    3.1602   56.0759 N.am    1  ZINC000062291520   -0.7200
     15 C15       -12.1603    3.3816   57.3838 C.3     1  ZINC000062291520    0.1600
     16 C16       -11.5270    2.4690   58.4022 C.ar    1  ZINC000062291520   -0.1100
     17 C17       -10.3677    2.8540   59.0489 C.ar    1  ZINC000062291520   -0.1000
     18 C18        -9.7870    2.0168   59.9835 C.ar    1  ZINC000062291520   -0.1200
     19 C19       -10.3655    0.7950   60.2710 C.ar    1  ZINC000062291520   -0.0900
     20 C20       -11.5249    0.4097   59.6237 C.ar    1  ZINC000062291520   -0.0800
     21 C21       -12.1555   -0.9227   59.9369 C.3     1  ZINC000062291520    0.0900
     22 N22       -12.2070   -1.7391   58.7168 N.3     1  ZINC000062291520   -0.5300
     23 C23       -11.1881   -2.7985   58.7486 C.3     1  ZINC000062291520    0.0100
     24 C24       -11.2371   -3.5855   57.4362 C.3     1  ZINC000062291520    0.0600
     25 O25       -12.5551   -4.1074   57.2481 O.3     1  ZINC000062291520   -0.3800
     26 C26       -13.5724   -3.1029   57.2117 C.3     1  ZINC000062291520    0.0900
     27 H27       -13.3888   -2.4291   56.3748 H       1  ZINC000062291520    0.0700
     28 C28       -14.9403   -3.7669   57.0424 C.3     1  ZINC000062291520   -0.1500
     29 C29       -13.5471   -2.3109   58.5217 C.3     1  ZINC000062291520    0.0200
     30 C30       -12.1087    1.2490   58.6936 C.ar    1  ZINC000062291520   -0.0900
     31 H31        -4.8474    5.0232   56.7242 H       1  ZINC000062291520    0.0500
     32 H32        -5.0509    6.4234   55.6441 H       1  ZINC000062291520    0.0600
     33 H33        -6.2616    6.0888   56.9053 H       1  ZINC000062291520    0.1000
     34 H34        -3.7076    4.9643   54.9690 H       1  ZINC000062291520    0.1400
     35 H35        -2.4154    3.8138   53.2179 H       1  ZINC000062291520    0.1300
     36 H36        -3.5606    2.3838   51.5766 H       1  ZINC000062291520    0.1300
     37 H37        -6.0032    2.0960   51.6798 H       1  ZINC000062291520    0.1400
     38 H38        -8.1178    4.9733   54.3808 H       1  ZINC000062291520    0.0700
     39 H39        -7.8918    3.5710   55.4536 H       1  ZINC000062291520    0.0700
     40 H40        -9.9113    2.5533   54.1017 H       1  ZINC000062291520    0.1100
     41 H41       -10.2345    4.2479   53.6633 H       1  ZINC000062291520    0.1100
     42 H42       -11.9393    2.5398   55.4472 H       1  ZINC000062291520    0.4000
     43 H43       -12.0140    4.4190   57.6847 H       1  ZINC000062291520    0.0800
     44 H44       -13.2275    3.1691   57.3194 H       1  ZINC000062291520    0.0800
     45 H45        -9.9159    3.8088   58.8245 H       1  ZINC000062291520    0.1200
     46 H46        -8.8813    2.3179   60.4892 H       1  ZINC000062291520    0.1300
     47 H47        -9.9118    0.1411   61.0011 H       1  ZINC000062291520    0.1200
     48 H48       -11.5622   -1.4365   60.6933 H       1  ZINC000062291520    0.0500
     49 H49       -13.1667   -0.7666   60.3127 H       1  ZINC000062291520    0.0900
     50 H50       -10.2013   -2.3510   58.8680 H       1  ZINC000062291520    0.0900
     51 H51       -11.3869   -3.4698   59.5839 H       1  ZINC000062291520    0.0400
     52 H52       -10.9851   -2.9253   56.6063 H       1  ZINC000062291520    0.0600
     53 H53       -10.5226   -4.4076   57.4780 H       1  ZINC000062291520    0.1000
     54 H54       -15.1240   -4.4393   57.8803 H       1  ZINC000062291520    0.0600
     55 H55       -15.7152   -3.0008   57.0147 H       1  ZINC000062291520    0.0700
     56 H56       -14.9564   -4.3337   56.1114 H       1  ZINC000062291520    0.0700
     57 H57       -13.7842   -2.9750   59.3530 H       1  ZINC000062291520    0.0400
     58 H58       -14.2824   -1.5077   58.4757 H       1  ZINC000062291520    0.0900
     59 H59       -13.0168    0.9501   58.1915 H       1  ZINC000062291520    0.1200
@<TRIPOS>BOND
     1     1     2    1
     2     1    31    1
     3     1    32    1
     4     1    33    1
     5     2     3    1
     6     3     8   ar
     7     3     4   ar
     8     4     5   ar
     9     4    34    1
    10     5     6   ar
    11     5    35    1
    12     6     7   ar
    13     6    36    1
    14     7     8   ar
    15     7    37    1
    16     8     9    1
    17     9    10    1
    18    10    11    1
    19    10    38    1
    20    10    39    1
    21    11    12    1
    22    11    40    1
    23    11    41    1
    24    12    13    2
    25    12    14   am
    26    14    15    1
    27    14    42    1
    28    15    16    1
    29    15    43    1
    30    15    44    1
    31    16    30   ar
    32    16    17   ar
    33    17    18   ar
    34    17    45    1
    35    18    19   ar
    36    18    46    1
    37    19    20   ar
    38    19    47    1
    39    20    21    1
    40    20    30   ar
    41    21    22    1
    42    21    48    1
    43    21    49    1
    44    22    29    1
    45    22    23    1
    46    23    24    1
    47    23    50    1
    48    23    51    1
    49    24    25    1
    50    24    52    1
    51    24    53    1
    52    25    26    1
    53    26    27    1
    54    26    28    1
    55    26    29    1
    56    28    54    1
    57    28    55    1
    58    28    56    1
    59    29    57    1
    60    29    58    1
    61    30    59    1
@<TRIPOS>SUBSTRUCTURE
     1 ZINC000062291520        1 TEMP              0 ****  ****    0 ROOT


##########                                Name:    ZINC000851838607
##########                DOCK_Rotatable_Bonds:                  12
##########                         Heavy_Atoms:                  23
##########                    Molecular_Weight:             352.495
##########                DOCK_Rotatable_Bonds:                  12
##########                       Formal_Charge:          0.00999896
##########                     HBond_Acceptors:                   8
##########                        HBond_Donors:                   2
##########                         Heavy_Atoms:                  23
##########                          Grid_Score:          -27.417038
##########                     Grid_vdw_energy:          -25.542330
##########                      Grid_es_energy:           -1.874708
##########           Internal_energy_repulsive:           27.002092

@<TRIPOS>MOLECULE
ZINC000851838607
 55 54 1 0 0
SMALL
USER_CHARGES


@<TRIPOS>ATOM
      1 C1          4.1785   -1.3727   61.3572 C.3     1  ZINC000851838607    0.0300
      2 O2          3.5568   -0.2082   60.8100 O.3     1  ZINC000851838607   -0.3800
      3 C3          3.5592    0.9192   61.6882 C.3     1  ZINC000851838607    0.0800
      4 C4          2.8068    0.5666   62.9728 C.3     1  ZINC000851838607   -0.6000
      5 H5          3.2969   -0.2756   63.4614 H       1  ZINC000851838607    0.1400
      6 C6          2.8095    1.7737   63.9131 C.3     1  ZINC000851838607   -0.1400
      7 S7          1.0961    0.1190   62.5682 S.o2    1  ZINC000851838607    2.6200
      8 O8          1.0674   -0.8717   61.5499 O.2     1  ZINC000851838607   -0.9400
      9 O9          0.3250   -0.0256   63.7530 O.2     1  ZINC000851838607   -0.9500
     10 N10         0.4765    1.4712   61.8401 N.am    1  ZINC000851838607   -1.1200
     11 C11        -0.9108    1.4793   61.3695 C.3     1  ZINC000851838607    0.1100
     12 C12        -0.9403    1.2083   59.8640 C.3     1  ZINC000851838607   -0.1400
     13 C13        -0.7543    2.5238   59.1052 C.3     1  ZINC000851838607    0.1700
     14 H14        -0.0702    3.1681   59.6574 H       1  ZINC000851838607    0.1000
     15 N15        -0.2004    2.2475   57.7774 N.am    1  ZINC000851838607   -0.7100
     16 C16         1.1344    2.1724   57.6063 C.2     1  ZINC000851838607    0.6500
     17 O17         1.8783    2.3325   58.5537 O.2     1  ZINC000851838607   -0.5600
     18 O18         1.6434    1.9202   56.3857 O.3     1  ZINC000851838607   -0.3700
     19 C19         1.8745    3.0620   55.5190 C.3     1  ZINC000851838607    0.1400
     20 C20         3.0726    2.7786   54.6106 C.3     1  ZINC000851838607   -0.1800
     21 C21         0.6321    3.3113   54.6617 C.3     1  ZINC000851838607   -0.1400
     22 C22         2.1625    4.2994   56.3715 C.3     1  ZINC000851838607   -0.1800
     23 C23        -2.1070    3.2233   58.9581 C.3     1  ZINC000851838607   -0.1100
     24 C24        -1.8952    4.7378   58.9083 C.3     1  ZINC000851838607   -0.1500
     25 C25        -2.7828    2.7601   57.6659 C.3     1  ZINC000851838607   -0.1400
     26 H26         5.2193   -1.1517   61.5940 H       1  ZINC000851838607    0.0400
     27 H27         3.6549   -1.6713   62.2654 H       1  ZINC000851838607    0.0500
     28 H28         4.1356   -2.1833   60.6298 H       1  ZINC000851838607    0.0900
     29 H29         4.5872    1.1880   61.9313 H       1  ZINC000851838607    0.0700
     30 H30         3.0692    1.7613   61.1995 H       1  ZINC000851838607    0.0600
     31 H31         2.1973    1.5541   64.7878 H       1  ZINC000851838607    0.0700
     32 H32         3.8309    1.9863   64.2284 H       1  ZINC000851838607    0.0900
     33 H33         2.4019    2.6404   63.3927 H       1  ZINC000851838607    0.0700
     34 H34         1.0321    2.2580   61.7254 H       1  ZINC000851838607    0.4200
     35 H35        -1.4753    0.7050   61.8891 H       1  ZINC000851838607    0.0700
     36 H36        -1.3577    2.4525   61.5723 H       1  ZINC000851838607    0.0800
     37 H37        -0.1355    0.5212   59.6027 H       1  ZINC000851838607    0.0800
     38 H38        -1.8986    0.7651   59.5933 H       1  ZINC000851838607    0.1000
     39 H39        -0.7942    2.1186   57.0214 H       1  ZINC000851838607    0.4100
     40 H40         2.8675    1.8970   54.0032 H       1  ZINC000851838607    0.0600
     41 H41         3.2460    3.6357   53.9600 H       1  ZINC000851838607    0.0700
     42 H42         3.9577    2.6010   55.2214 H       1  ZINC000851838607    0.0900
     43 H43        -0.2215    3.5132   55.3089 H       1  ZINC000851838607    0.0700
     44 H44         0.8055    4.1684   54.0110 H       1  ZINC000851838607    0.0800
     45 H45         0.4270    2.4298   54.0543 H       1  ZINC000851838607    0.0700
     46 H46         3.0476    4.1219   56.9824 H       1  ZINC000851838607    0.0900
     47 H47         2.3359    5.1566   55.7210 H       1  ZINC000851838607    0.0700
     48 H48         1.3089    4.5014   57.0188 H       1  ZINC000851838607    0.0600
     49 H49        -2.7401    2.9728   59.8092 H       1  ZINC000851838607    0.0700
     50 H50        -1.2621    4.9883   58.0571 H       1  ZINC000851838607    0.0600
     51 H51        -2.8590    5.2361   58.8033 H       1  ZINC000851838607    0.0600
     52 H52        -1.4138    5.0678   59.8288 H       1  ZINC000851838607    0.0600
     53 H53        -2.9336    1.6812   57.7014 H       1  ZINC000851838607    0.0500
     54 H54        -3.7464    3.2584   57.5610 H       1  ZINC000851838607    0.0500
     55 H55        -2.1496    3.0107   56.8147 H       1  ZINC000851838607    0.0700
@<TRIPOS>BOND
     1     1     2    1
     2     1    26    1
     3     1    27    1
     4     1    28    1
     5     2     3    1
     6     3     4    1
     7     3    29    1
     8     3    30    1
     9     4     5    1
    10     4     6    1
    11     4     7    1
    12     6    31    1
    13     6    32    1
    14     6    33    1
    15     7     8    2
    16     7     9    2
    17     7    10   am
    18    10    11    1
    19    10    34    1
    20    11    12    1
    21    11    35    1
    22    11    36    1
    23    12    13    1
    24    12    37    1
    25    12    38    1
    26    13    14    1
    27    13    15    1
    28    13    23    1
    29    15    16   am
    30    15    39    1
    31    16    17    2
    32    16    18    1
    33    18    19    1
    34    19    20    1
    35    19    21    1
    36    19    22    1
    37    20    40    1
    38    20    41    1
    39    20    42    1
    40    21    43    1
    41    21    44    1
    42    21    45    1
    43    22    46    1
    44    22    47    1
    45    22    48    1
    46    23    24    1
    47    23    25    1
    48    23    49    1
    49    24    50    1
    50    24    51    1
    51    24    52    1
    52    25    53    1
    53    25    54    1
    54    25    55    1
@<TRIPOS>SUBSTRUCTURE
     1 ZINC000851838607        1 TEMP              0 ****  ****    0 ROOT


##########                                Name:    ZINC000542980334
##########                DOCK_Rotatable_Bonds:                   6
##########                         Heavy_Atoms:                  27
##########                    Molecular_Weight:             404.795
##########                DOCK_Rotatable_Bonds:                   6
##########                       Formal_Charge:           0.0300001
##########                     HBond_Acceptors:                  10
##########                        HBond_Donors:                   1
##########                         Heavy_Atoms:                  27
##########                          Grid_Score:          -27.392649
##########                     Grid_vdw_energy:          -25.816130
##########                      Grid_es_energy:           -1.576518
##########           Internal_energy_repulsive:           12.343340

@<TRIPOS>MOLECULE
ZINC000542980334
 44 46 1 0 0
SMALL
USER_CHARGES


@<TRIPOS>ATOM
      1 O1          1.9531    4.9913   53.2343 O.2     1  ZINC000542980334   -0.5800
      2 C2          1.4498    4.1876   53.9953 C.2     1  ZINC000542980334    0.7100
      3 N3          1.2224    2.9236   53.5866 N.am    1  ZINC000542980334   -0.7400
      4 C4          1.5760    2.5196   52.2236 C.3     1  ZINC000542980334    0.1800
      5 C5          1.7700    1.0258   52.1767 C.ar    1  ZINC000542980334   -0.1400
      6 C6          2.9180    0.4598   52.7035 C.ar    1  ZINC000542980334    0.1300
      7 F7          3.8653    1.2461   53.2599 F       1  ZINC000542980334   -0.1200
      8 C8          3.0948   -0.9130   52.6602 C.ar    1  ZINC000542980334   -0.1500
      9 C9          2.1255   -1.7170   52.0914 C.ar    1  ZINC000542980334   -0.0700
     10 C10         0.9789   -1.1517   51.5652 C.ar    1  ZINC000542980334   -0.1200
     11 C11         0.7982    0.2191   51.6123 C.ar    1  ZINC000542980334    0.0100
     12 Cl12       -0.6423    0.9279   50.9519 Cl      1  ZINC000542980334   -0.0400
     13 N13         1.1245    4.5593   55.2493 N.am    1  ZINC000542980334   -0.6300
     14 C14         1.3664    5.9335   55.7092 C.3     1  ZINC000542980334    0.1100
     15 C15         2.1855    5.8835   57.0028 C.3     1  ZINC000542980334   -0.1300
     16 C16         1.4674    4.9966   58.0226 C.3     1  ZINC000542980334   -0.1300
     17 C17         1.3492    3.5742   57.4704 C.3     1  ZINC000542980334    0.1400
     18 H18         2.3439    3.1833   57.2560 H       1  ZINC000542980334    0.1100
     19 N19         0.6905    2.7186   58.4604 N.pl3   1  ZINC000542980334   -0.3400
     20 C20        -0.6371    2.4985   58.5617 C.2     1  ZINC000542980334    0.0600
     21 C21        -0.8371    1.6533   59.5993 C.2     1  ZINC000542980334   -0.2300
     22 C22         0.4110    1.3463   60.1511 C.2     1  ZINC000542980334   -0.0200
     23 C23         0.6575    0.4376   61.3277 C.3     1  ZINC000542980334    0.5600
     24 F24         1.8027    0.8602   62.0113 F       1  ZINC000542980334   -0.1700
     25 F25        -0.4433    0.4821   62.1900 F       1  ZINC000542980334   -0.1700
     26 F26         0.8421   -0.8729   60.8744 F       1  ZINC000542980334   -0.1600
     27 N27         1.3278    1.9795   59.4654 N.2     1  ZINC000542980334   -0.2300
     28 C28         0.5155    3.5996   56.1803 C.3     1  ZINC000542980334    0.1300
     29 H29         0.8244    2.2814   54.1950 H       1  ZINC000542980334    0.4000
     30 H30         0.7749    2.8035   51.5411 H       1  ZINC000542980334    0.0900
     31 H31         2.4998    3.0155   51.9257 H       1  ZINC000542980334    0.0900
     32 H32         3.9905   -1.3553   53.0708 H       1  ZINC000542980334    0.1500
     33 H33         2.2639   -2.7875   52.0576 H       1  ZINC000542980334    0.1500
     34 H34         0.2221   -1.7808   51.1206 H       1  ZINC000542980334    0.1500
     35 H35         1.9202    6.4818   54.9470 H       1  ZINC000542980334    0.0800
     36 H36         0.4140    6.4285   55.8987 H       1  ZINC000542980334    0.0800
     37 H37         3.1724    5.4709   56.7929 H       1  ZINC000542980334    0.0800
     38 H38         2.2901    6.8906   57.4063 H       1  ZINC000542980334    0.0900
     39 H39         2.0358    4.9791   58.9525 H       1  ZINC000542980334    0.0800
     40 H40         0.4713    5.3960   58.2134 H       1  ZINC000542980334    0.0800
     41 H41        -1.4028    2.9214   57.9282 H       1  ZINC000542980334    0.1900
     42 H42        -1.7918    1.2818   59.9414 H       1  ZINC000542980334    0.1600
     43 H43        -0.5055    3.9037   56.4109 H       1  ZINC000542980334    0.0800
     44 H44         0.5103    2.6074   55.7290 H       1  ZINC000542980334    0.1100
@<TRIPOS>BOND
     1     1     2    2
     2     2     3   am
     3     2    13   am
     4     3     4    1
     5     3    29    1
     6     4     5    1
     7     4    30    1
     8     4    31    1
     9     5    11   ar
    10     5     6   ar
    11     6     7    1
    12     6     8   ar
    13     8     9   ar
    14     8    32    1
    15     9    10   ar
    16     9    33    1
    17    10    11   ar
    18    10    34    1
    19    11    12    1
    20    13    28    1
    21    13    14    1
    22    14    15    1
    23    14    35    1
    24    14    36    1
    25    15    16    1
    26    15    37    1
    27    15    38    1
    28    16    17    1
    29    16    39    1
    30    16    40    1
    31    17    18    1
    32    17    19    1
    33    17    28    1
    34    19    27    1
    35    19    20    1
    36    20    21    2
    37    20    41    1
    38    21    22    1
    39    21    42    1
    40    22    23    1
    41    22    27    2
    42    23    24    1
    43    23    25    1
    44    23    26    1
    45    28    43    1
    46    28    44    1
@<TRIPOS>SUBSTRUCTURE
     1 ZINC000542980334        1 TEMP              0 ****  ****    0 ROOT


##########                                Name:    ZINC000504860563
##########                DOCK_Rotatable_Bonds:                   6
##########                         Heavy_Atoms:                  25
##########                    Molecular_Weight:             370.786
##########                DOCK_Rotatable_Bonds:                   6
##########                       Formal_Charge:                0.01
##########                     HBond_Acceptors:                   9
##########                        HBond_Donors:                   0
##########                         Heavy_Atoms:                  25
##########                          Grid_Score:          -27.392191
##########                     Grid_vdw_energy:          -25.457468
##########                      Grid_es_energy:           -1.934723
##########           Internal_energy_repulsive:           21.705940

@<TRIPOS>MOLECULE
ZINC000504860563
 42 44 1 0 0
SMALL
USER_CHARGES


@<TRIPOS>ATOM
      1 O1        -12.8618    1.7227   60.8428 O.2     1  ZINC000504860563   -0.5100
      2 C2        -11.7161    1.4273   61.1212 C.2     1  ZINC000504860563    0.5700
      3 C3        -10.7807    2.4663   61.6019 C.ar    1  ZINC000504860563    0.0500
      4 N4        -10.8670    2.9040   62.8530 N.ar    1  ZINC000504860563   -0.4100
      5 C5        -10.0549    3.8257   63.3195 C.ar    1  ZINC000504860563    0.0600
      6 C6         -9.0683    4.3824   62.5188 C.ar    1  ZINC000504860563   -0.1000
      7 C7         -8.9377    3.9600   61.2080 C.ar    1  ZINC000504860563   -0.1700
      8 C8         -9.8066    2.9780   60.7376 C.ar    1  ZINC000504860563    0.1400
      9 O9         -9.7161    2.5322   59.4596 O.3     1  ZINC000504860563   -0.2600
     10 C10        -8.7273    3.1426   58.6281 C.3     1  ZINC000504860563   -0.0100
     11 C11        -9.1756    4.5577   58.2573 C.3     1  ZINC000504860563    0.2800
     12 F12        -8.1907    5.1685   57.4735 F       1  ZINC000504860563   -0.1900
     13 F13       -10.3725    4.4937   57.5357 F       1  ZINC000504860563   -0.1900
     14 N14       -11.3000    0.1513   60.9971 N.am    1  ZINC000504860563   -0.6000
     15 C15       -12.2161   -0.8913   60.5151 C.3     1  ZINC000504860563    0.0800
     16 C16       -11.5643   -1.6110   59.3302 C.3     1  ZINC000504860563   -0.1500
     17 C17       -10.1865   -2.1294   59.7486 C.3     1  ZINC000504860563    0.1600
     18 N18        -9.5740   -2.8470   58.6279 N.pl3   1  ZINC000504860563   -0.3600
     19 C19        -8.2693   -3.1758   58.5130 C.2     1  ZINC000504860563    0.0700
     20 C20        -8.1107   -3.8295   57.3383 C.2     1  ZINC000504860563   -0.1900
     21 Cl21       -6.6201   -4.4654   56.7160 Cl      1  ZINC000504860563   -0.0400
     22 C22        -9.3612   -3.9027   56.7144 C.2     1  ZINC000504860563    0.0600
     23 N23       -10.2394   -3.3187   57.4890 N.2     1  ZINC000504860563   -0.2800
     24 C24        -9.2956   -0.9506   60.1473 C.3     1  ZINC000504860563   -0.1400
     25 C25        -9.9199   -0.2223   61.3355 C.3     1  ZINC000504860563    0.1200
     26 H26       -10.1575    4.1555   64.3428 H       1  ZINC000504860563    0.1700
     27 H27        -8.4081    5.1395   62.9154 H       1  ZINC000504860563    0.1500
     28 H28        -8.1771    4.3788   60.5656 H       1  ZINC000504860563    0.1500
     29 H29        -7.7800    3.1907   59.1654 H       1  ZINC000504860563    0.1000
     30 H30        -8.6006    2.5521   57.7207 H       1  ZINC000504860563    0.1000
     31 H31        -9.3297    5.1398   59.1658 H       1  ZINC000504860563    0.1300
     32 H32       -12.4098   -1.6059   61.3150 H       1  ZINC000504860563    0.0700
     33 H33       -13.1529   -0.4352   60.1950 H       1  ZINC000504860563    0.1600
     34 H34       -12.1907   -2.4490   59.0243 H       1  ZINC000504860563    0.0900
     35 H35       -11.4540   -0.9157   58.4980 H       1  ZINC000504860563    0.0700
     36 H36       -10.2951   -2.8053   60.5969 H       1  ZINC000504860563    0.1100
     37 H37        -7.4916   -2.9560   59.2295 H       1  ZINC000504860563    0.1800
     38 H38        -9.5667   -4.3645   55.7600 H       1  ZINC000504860563    0.1900
     39 H39        -8.3072   -1.3185   60.4228 H       1  ZINC000504860563    0.0900
     40 H40        -9.2067   -0.2615   59.3075 H       1  ZINC000504860563    0.0800
     41 H41        -9.3418    0.6742   61.5595 H       1  ZINC000504860563    0.1000
     42 H42        -9.9284   -0.8806   62.2043 H       1  ZINC000504860563    0.0800
@<TRIPOS>BOND
     1     1     2    2
     2     2     3    1
     3     2    14   am
     4     3     8   ar
     5     3     4   ar
     6     4     5   ar
     7     5     6   ar
     8     5    26    1
     9     6     7   ar
    10     6    27    1
    11     7     8   ar
    12     7    28    1
    13     8     9    1
    14     9    10    1
    15    10    11    1
    16    10    29    1
    17    10    30    1
    18    11    12    1
    19    11    13    1
    20    11    31    1
    21    14    25    1
    22    14    15    1
    23    15    16    1
    24    15    32    1
    25    15    33    1
    26    16    17    1
    27    16    34    1
    28    16    35    1
    29    17    18    1
    30    17    24    1
    31    17    36    1
    32    18    23    1
    33    18    19    1
    34    19    20    2
    35    19    37    1
    36    20    21    1
    37    20    22    1
    38    22    23    2
    39    22    38    1
    40    24    25    1
    41    24    39    1
    42    24    40    1
    43    25    41    1
    44    25    42    1
@<TRIPOS>SUBSTRUCTURE
     1 ZINC000504860563        1 TEMP              0 ****  ****    0 ROOT


##########                                Name:    ZINC000186105981
##########                DOCK_Rotatable_Bonds:                   6
##########                         Heavy_Atoms:                  26
##########                    Molecular_Weight:             396.873
##########                DOCK_Rotatable_Bonds:                   6
##########                       Formal_Charge:          -0.0400003
##########                     HBond_Acceptors:                   9
##########                        HBond_Donors:                   1
##########                         Heavy_Atoms:                  26
##########                          Grid_Score:          -27.383774
##########                     Grid_vdw_energy:          -26.876591
##########                      Grid_es_energy:           -0.507183
##########           Internal_energy_repulsive:           41.280521

@<TRIPOS>MOLECULE
ZINC000186105981
 44 46 1 0 0
SMALL
USER_CHARGES


@<TRIPOS>ATOM
      1 C1        -15.2470   -1.0581   59.3565 C.3     1  ZINC000186105981   -0.1400
      2 C2        -14.1902   -2.1626   59.4201 C.3     1  ZINC000186105981   -0.1100
      3 C3        -14.6013   -3.3152   58.5017 C.3     1  ZINC000186105981   -0.1600
      4 C4        -12.8407   -1.6040   58.9644 C.3     1  ZINC000186105981    0.1600
      5 H5        -12.2640   -2.3941   58.4837 H       1  ZINC000186105981    0.1200
      6 C6        -12.0828   -1.0846   60.1590 C.2     1  ZINC000186105981    0.4900
      7 O7        -11.0820   -1.6558   60.5374 O.2     1  ZINC000186105981   -0.4300
      8 N8        -12.5170    0.0145   60.8068 N.am    1  ZINC000186105981   -0.6300
      9 C9        -11.8181    0.4934   61.9084 C.2     1  ZINC000186105981    0.2400
     10 N10       -12.3025    0.6773   63.1036 N.2     1  ZINC000186105981   -0.2600
     11 N11       -11.5233    1.1206   63.9905 N.2     1  ZINC000186105981   -0.2000
     12 C12       -10.2894    1.3627   63.6466 C.2     1  ZINC000186105981    0.0300
     13 C13        -9.2249    1.8814   64.5310 C.ar    1  ZINC000186105981   -0.0500
     14 C14        -9.1035    3.2558   64.7521 C.ar    1  ZINC000186105981    0.1300
     15 F15        -9.9594    4.1158   64.1577 F       1  ZINC000186105981   -0.1200
     16 C16        -8.1055    3.7331   65.5809 C.ar    1  ZINC000186105981   -0.1400
     17 C17        -7.2291    2.8538   66.1903 C.ar    1  ZINC000186105981   -0.0600
     18 C18        -7.3436    1.4918   65.9751 C.ar    1  ZINC000186105981   -0.1200
     19 C19        -8.3389    0.9998   65.1545 C.ar    1  ZINC000186105981    0.0200
     20 Cl20       -8.4803   -0.7096   64.8870 Cl      1  ZINC000186105981   -0.0100
     21 S21       -10.1147    0.9534   61.9389 S.3     1  ZINC000186105981    0.1200
     22 N22       -13.0604   -0.5118   58.0130 N.am    1  ZINC000186105981   -0.6100
     23 C23       -13.1976    0.8999   58.3902 C.3     1  ZINC000186105981    0.1000
     24 C24       -12.9729    1.6984   57.0870 C.3     1  ZINC000186105981   -0.1300
     25 C25       -13.3759    0.6645   56.0103 C.3     1  ZINC000186105981   -0.1600
     26 C26       -13.1564   -0.6731   56.6820 C.2     1  ZINC000186105981    0.5200
     27 O27       -13.0847   -1.7371   56.1044 O.2     1  ZINC000186105981   -0.5000
     28 H28       -16.2084   -1.4561   59.6812 H       1  ZINC000186105981    0.0600
     29 H29       -14.9542   -0.2369   60.0108 H       1  ZINC000186105981    0.0600
     30 H30       -15.3314   -0.6943   58.3325 H       1  ZINC000186105981    0.0600
     31 H31       -14.1059   -2.5263   60.4441 H       1  ZINC000186105981    0.0900
     32 H32       -14.5949   -2.9749   57.4662 H       1  ZINC000186105981    0.0600
     33 H33       -13.8985   -4.1403   58.6174 H       1  ZINC000186105981    0.0600
     34 H34       -15.6035   -3.6517   58.7673 H       1  ZINC000186105981    0.0700
     35 H35       -13.3175    0.4713   60.5042 H       1  ZINC000186105981    0.4200
     36 H36        -8.0098    4.7950   65.7528 H       1  ZINC000186105981    0.1500
     37 H37        -6.4513    3.2322   66.8369 H       1  ZINC000186105981    0.1500
     38 H38        -6.6552    0.8112   66.4542 H       1  ZINC000186105981    0.1500
     39 H39       -14.1969    1.0903   58.7817 H       1  ZINC000186105981    0.0700
     40 H40       -12.4441    1.1673   59.1311 H       1  ZINC000186105981    0.0800
     41 H41       -13.6212    2.5738   57.0492 H       1  ZINC000186105981    0.0900
     42 H42       -11.9266    1.9848   56.9806 H       1  ZINC000186105981    0.0800
     43 H43       -14.4229    0.7897   55.7340 H       1  ZINC000186105981    0.1100
     44 H44       -12.7352    0.7575   55.1333 H       1  ZINC000186105981    0.1000
@<TRIPOS>BOND
     1     1     2    1
     2     1    28    1
     3     1    29    1
     4     1    30    1
     5     2     3    1
     6     2     4    1
     7     2    31    1
     8     3    32    1
     9     3    33    1
    10     3    34    1
    11     4     5    1
    12     4     6    1
    13     4    22    1
    14     6     7    2
    15     6     8   am
    16     8     9    1
    17     8    35    1
    18     9    21    1
    19     9    10    2
    20    10    11    1
    21    11    12    2
    22    12    13    1
    23    12    21    1
    24    13    19   ar
    25    13    14   ar
    26    14    15    1
    27    14    16   ar
    28    16    17   ar
    29    16    36    1
    30    17    18   ar
    31    17    37    1
    32    18    19   ar
    33    18    38    1
    34    19    20    1
    35    22    26   am
    36    22    23    1
    37    23    24    1
    38    23    39    1
    39    23    40    1
    40    24    25    1
    41    24    41    1
    42    24    42    1
    43    25    26    1
    44    25    43    1
    45    25    44    1
    46    26    27    2
@<TRIPOS>SUBSTRUCTURE
     1 ZINC000186105981        1 TEMP              0 ****  ****    0 ROOT


##########                                Name:    ZINC001191386213
##########                DOCK_Rotatable_Bonds:                   6
##########                         Heavy_Atoms:                  29
##########                    Molecular_Weight:             392.433
##########                DOCK_Rotatable_Bonds:                   6
##########                       Formal_Charge:               -0.02
##########                     HBond_Acceptors:                   7
##########                        HBond_Donors:                   2
##########                         Heavy_Atoms:                  29
##########                          Grid_Score:          -27.376652
##########                     Grid_vdw_energy:          -26.214172
##########                      Grid_es_energy:           -1.162478
##########           Internal_energy_repulsive:          181.325058

@<TRIPOS>MOLECULE
ZINC001191386213
 50 53 1 0 0
SMALL
USER_CHARGES


@<TRIPOS>ATOM
      1 C1        -15.5418    6.0736   66.9245 C.3     1  ZINC001191386213   -0.1700
      2 C2        -14.4005    5.2429   66.3968 C.2     1  ZINC001191386213    0.5100
      3 O3        -14.5827    4.4802   65.4716 O.2     1  ZINC001191386213   -0.5200
      4 N4        -13.1773    5.3475   66.9530 N.am    1  ZINC001191386213   -0.6800
      5 C5        -12.1175    4.5761   66.4629 C.ar    1  ZINC001191386213    0.1400
      6 C6        -10.8566    4.6838   67.0361 C.ar    1  ZINC001191386213   -0.1400
      7 C7         -9.8077    3.9231   66.5550 C.ar    1  ZINC001191386213   -0.1000
      8 C8        -10.0072    3.0526   65.5022 C.ar    1  ZINC001191386213   -0.1100
      9 C9        -11.2687    2.9385   64.9211 C.ar    1  ZINC001191386213    0.0100
     10 C10       -11.4847    2.0028   63.7890 C.2     1  ZINC001191386213    0.0700
     11 N11       -10.5763    1.2248   63.2389 N.2     1  ZINC001191386213   -0.2500
     12 N12       -11.0847    0.5370   62.2811 N.pl3   1  ZINC001191386213   -0.3800
     13 C13       -12.4105    0.8391   62.1448 C.2     1  ZINC001191386213   -0.0400
     14 C14       -13.3484    0.2677   61.1648 C.2     1  ZINC001191386213    0.6100
     15 O15       -14.5060    0.6405   61.1417 O.2     1  ZINC001191386213   -0.5100
     16 N16       -12.9245   -0.6687   60.2930 N.am    1  ZINC001191386213   -0.6200
     17 C17       -13.7509   -1.3204   59.2665 C.3     1  ZINC001191386213    0.0800
     18 C18       -12.8506   -2.3337   58.5287 C.3     1  ZINC001191386213   -0.1200
     19 C19       -11.7171   -2.6021   59.5537 C.3     1  ZINC001191386213   -0.0600
     20 H20       -12.0231   -3.3469   60.2884 H       1  ZINC001191386213    0.1000
     21 C21       -10.4484   -3.0232   58.8581 C.ar    1  ZINC001191386213   -0.1100
     22 C22       -10.4963   -3.5001   57.5621 C.ar    1  ZINC001191386213   -0.0900
     23 C23        -9.3324   -3.8866   56.9237 C.ar    1  ZINC001191386213   -0.1300
     24 C24        -8.1197   -3.7969   57.5809 C.ar    1  ZINC001191386213   -0.0900
     25 C25        -8.0694   -3.3205   58.8775 C.ar    1  ZINC001191386213   -0.1500
     26 C26        -9.2333   -2.9270   59.5154 C.ar    1  ZINC001191386213    0.1100
     27 F27        -9.1854   -2.4613   60.7827 F       1  ZINC001191386213   -0.1400
     28 C28       -11.5537   -1.2044   60.2066 C.3     1  ZINC001191386213    0.1200
     29 C29       -12.6986    1.7819   63.1132 C.2     1  ZINC001191386213   -0.1300
     30 C30       -12.3270    3.6995   65.4088 C.ar    1  ZINC001191386213   -0.1000
     31 H31       -16.4446    5.8546   66.3543 H       1  ZINC001191386213    0.1000
     32 H32       -15.7089    5.8357   67.9751 H       1  ZINC001191386213    0.0900
     33 H33       -15.2973    7.1312   66.8259 H       1  ZINC001191386213    0.0900
     34 H34       -13.0315    5.9576   67.6929 H       1  ZINC001191386213    0.4100
     35 H35       -10.6954    5.3640   67.8593 H       1  ZINC001191386213    0.1300
     36 H36        -8.8292    4.0102   67.0036 H       1  ZINC001191386213    0.1300
     37 H37        -9.1852    2.4600   65.1286 H       1  ZINC001191386213    0.1300
     38 H38       -10.5998   -0.1015   61.7351 H       1  ZINC001191386213    0.4400
     39 H39       -14.5854   -1.8401   59.7373 H       1  ZINC001191386213    0.0700
     40 H40       -14.1244   -0.5758   58.5635 H       1  ZINC001191386213    0.0800
     41 H41       -13.3991   -3.2502   58.3115 H       1  ZINC001191386213    0.0900
     42 H42       -12.4483   -1.8977   57.6143 H       1  ZINC001191386213    0.0900
     43 H43       -11.4433   -3.5713   57.0478 H       1  ZINC001191386213    0.1300
     44 H44        -9.3707   -4.2592   55.9107 H       1  ZINC001191386213    0.1300
     45 H45        -7.2112   -4.0993   57.0814 H       1  ZINC001191386213    0.1300
     46 H46        -7.1219   -3.2511   59.3911 H       1  ZINC001191386213    0.1400
     47 H47       -10.9295   -0.5648   59.5827 H       1  ZINC001191386213    0.0800
     48 H48       -11.1237   -1.2994   61.2037 H       1  ZINC001191386213    0.0900
     49 H49       -13.6509    2.2534   63.3058 H       1  ZINC001191386213    0.1700
     50 H50       -13.3064    3.6145   64.9616 H       1  ZINC001191386213    0.1500
@<TRIPOS>BOND
     1     1     2    1
     2     1    31    1
     3     1    32    1
     4     1    33    1
     5     2     3    2
     6     2     4   am
     7     4     5    1
     8     4    34    1
     9     5    30   ar
    10     5     6   ar
    11     6     7   ar
    12     6    35    1
    13     7     8   ar
    14     7    36    1
    15     8     9   ar
    16     8    37    1
    17     9    10    1
    18     9    30   ar
    19    10    29    1
    20    10    11    2
    21    11    12    1
    22    12    13    1
    23    12    38    1
    24    13    14    1
    25    13    29    2
    26    14    15    2
    27    14    16   am
    28    16    28    1
    29    16    17    1
    30    17    18    1
    31    17    39    1
    32    17    40    1
    33    18    19    1
    34    18    41    1
    35    18    42    1
    36    19    20    1
    37    19    21    1
    38    19    28    1
    39    21    26   ar
    40    21    22   ar
    41    22    23   ar
    42    22    43    1
    43    23    24   ar
    44    23    44    1
    45    24    25   ar
    46    24    45    1
    47    25    26   ar
    48    25    46    1
    49    26    27    1
    50    28    47    1
    51    28    48    1
    52    29    49    1
    53    30    50    1
@<TRIPOS>SUBSTRUCTURE
     1 ZINC001191386213        1 TEMP              0 ****  ****    0 ROOT


##########                                Name:    ZINC000439870054
##########                DOCK_Rotatable_Bonds:                   5
##########                         Heavy_Atoms:                  27
##########                    Molecular_Weight:             421.974
##########                DOCK_Rotatable_Bonds:                   5
##########                       Formal_Charge:           0.0200003
##########                     HBond_Acceptors:                   9
##########                        HBond_Donors:                   0
##########                         Heavy_Atoms:                  27
##########                          Grid_Score:          -27.368431
##########                     Grid_vdw_energy:          -24.909836
##########                      Grid_es_energy:           -2.458594
##########           Internal_energy_repulsive:           64.426147

@<TRIPOS>MOLECULE
ZINC000439870054
 47 50 1 0 0
SMALL
USER_CHARGES


@<TRIPOS>ATOM
      1 C1         -9.7360    2.2239   62.1599 C.3     1  ZINC000439870054   -0.1400
      2 C2         -9.7569    0.7227   61.8655 C.3     1  ZINC000439870054    0.0000
      3 C3         -9.0909   -0.0323   63.0178 C.3     1  ZINC000439870054   -0.1400
      4 C4        -11.1833    0.2591   61.7193 C.2     1  ZINC000439870054    0.1900
      5 N5        -12.1743    0.5266   62.5303 N.2     1  ZINC000439870054   -0.2900
      6 N6        -13.2529   -0.0332   62.0995 N.2     1  ZINC000439870054   -0.2700
      7 C7        -12.9960   -0.6787   61.0040 C.2     1  ZINC000439870054    0.1600
      8 C8        -13.9343   -1.4942   60.1473 C.3     1  ZINC000439870054    0.2400
      9 H9        -14.1982   -2.4187   60.6608 H       1  ZINC000439870054    0.1100
     10 C10       -15.1980   -0.6871   59.8431 C.3     1  ZINC000439870054   -0.1300
     11 N11       -13.2170   -1.8008   58.8952 N.am    1  ZINC000439870054   -0.6300
     12 C12       -13.8343   -1.7033   57.7011 C.2     1  ZINC000439870054    0.5300
     13 O13       -14.9959   -1.3593   57.6454 O.2     1  ZINC000439870054   -0.4900
     14 C14       -13.0811   -2.0216   56.4353 C.3     1  ZINC000439870054   -0.0700
     15 C15       -13.8831   -1.5630   55.2447 C.2     1  ZINC000439870054    0.0900
     16 C16       -15.0898   -2.0649   54.9666 C.2     1  ZINC000439870054   -0.2400
     17 S17       -15.6935   -1.2781   53.5096 S.3     1  ZINC000439870054    0.1300
     18 C18       -14.2157   -0.3234   53.4181 C.2     1  ZINC000439870054    0.1400
     19 C19       -13.9072    0.6757   52.3835 C.2     1  ZINC000439870054   -0.1300
     20 C20       -14.7179    1.0105   51.3561 C.2     1  ZINC000439870054   -0.1000
     21 C21       -14.2104    1.9757   50.5134 C.2     1  ZINC000439870054   -0.1200
     22 C22       -12.9956    2.4324   50.8409 C.2     1  ZINC000439870054   -0.1500
     23 Cl23      -12.1146    3.6444   49.9641 Cl      1  ZINC000439870054    0.0000
     24 S24       -12.4290    1.6250   52.2967 S.3     1  ZINC000439870054    0.2500
     25 N25       -13.4412   -0.6412   54.4192 N.2     1  ZINC000439870054   -0.4400
     26 C26       -11.8088   -2.2154   58.9870 C.3     1  ZINC000439870054    0.0900
     27 C27       -10.9801   -1.0645   59.5696 C.3     1  ZINC000439870054    0.0900
     28 N28       -11.6792   -0.5041   60.7252 N.pl3   1  ZINC000439870054   -0.4700
     29 H29        -8.7043    2.5592   62.2658 H       1  ZINC000439870054    0.0700
     30 H30       -10.2105    2.7618   61.3391 H       1  ZINC000439870054    0.0500
     31 H31       -10.2786    2.4203   63.0847 H       1  ZINC000439870054    0.0700
     32 H32        -9.2143    0.5262   60.9409 H       1  ZINC000439870054    0.0800
     33 H33        -9.1057   -1.1018   62.8081 H       1  ZINC000439870054    0.0500
     34 H34        -8.0591    0.3030   63.1236 H       1  ZINC000439870054    0.0700
     35 H35        -9.6334    0.1642   63.9425 H       1  ZINC000439870054    0.0700
     36 H36       -14.9473    0.1475   59.1884 H       1  ZINC000439870054    0.0600
     37 H37       -15.9289   -1.3285   59.3505 H       1  ZINC000439870054    0.0900
     38 H38       -15.6182   -0.3055   60.7736 H       1  ZINC000439870054    0.0700
     39 H39       -12.1198   -1.5078   56.4454 H       1  ZINC000439870054    0.1100
     40 H40       -12.9175   -3.0974   56.3706 H       1  ZINC000439870054    0.1200
     41 H41       -15.6064   -2.8230   55.5366 H       1  ZINC000439870054    0.1800
     42 H42       -15.6867    0.5574   51.2066 H       1  ZINC000439870054    0.1500
     43 H43       -14.7527    2.3367   49.6520 H       1  ZINC000439870054    0.1600
     44 H44       -11.7277   -3.0874   59.6359 H       1  ZINC000439870054    0.0900
     45 H45       -11.4373   -2.4647   57.9930 H       1  ZINC000439870054    0.1200
     46 H46       -10.0037   -1.4385   59.8779 H       1  ZINC000439870054    0.1100
     47 H47       -10.8522   -0.2889   58.8144 H       1  ZINC000439870054    0.0900
@<TRIPOS>BOND
     1     1     2    1
     2     1    29    1
     3     1    30    1
     4     1    31    1
     5     2     3    1
     6     2     4    1
     7     2    32    1
     8     3    33    1
     9     3    34    1
    10     3    35    1
    11     4    28    1
    12     4     5    2
    13     5     6    1
    14     6     7    2
    15     7    28    1
    16     7     8    1
    17     8     9    1
    18     8    10    1
    19     8    11    1
    20    10    36    1
    21    10    37    1
    22    10    38    1
    23    11    12   am
    24    11    26    1
    25    12    13    2
    26    12    14    1
    27    14    15    1
    28    14    39    1
    29    14    40    1
    30    15    25    1
    31    15    16    2
    32    16    17    1
    33    16    41    1
    34    17    18    1
    35    18    19    1
    36    18    25    2
    37    19    24    1
    38    19    20    2
    39    20    21    1
    40    20    42    1
    41    21    22    2
    42    21    43    1
    43    22    23    1
    44    22    24    1
    45    26    27    1
    46    26    44    1
    47    26    45    1
    48    27    28    1
    49    27    46    1
    50    27    47    1
@<TRIPOS>SUBSTRUCTURE
     1 ZINC000439870054        1 TEMP              0 ****  ****    0 ROOT


##########                                Name:    ZINC000285228948
##########                DOCK_Rotatable_Bonds:                   8
##########                         Heavy_Atoms:                  23
##########                    Molecular_Weight:             339.822
##########                DOCK_Rotatable_Bonds:                   8
##########                       Formal_Charge:           0.0299997
##########                     HBond_Acceptors:                   7
##########                        HBond_Donors:                   3
##########                         Heavy_Atoms:                  23
##########                          Grid_Score:          -27.311890
##########                     Grid_vdw_energy:          -26.227478
##########                      Grid_es_energy:           -1.084412
##########           Internal_energy_repulsive:           29.842390

@<TRIPOS>MOLECULE
ZINC000285228948
 45 46 1 0 0
SMALL
USER_CHARGES


@<TRIPOS>ATOM
      1 C1        -11.1373    3.9165   64.1014 C.3     1  <0>        -0.1600
      2 C2        -11.0311    2.4040   63.8964 C.3     1  <0>         0.1800
      3 H3        -11.9179    1.9189   64.3046 H       1  <0>         0.1100
      4 C4         -9.8050    1.8861   64.6031 C.ar    1  <0>        -0.0900
      5 C5         -9.3614    2.5023   65.7584 C.ar    1  <0>        -0.1000
      6 C6         -8.2370    2.0279   66.4070 C.ar    1  <0>        -0.1100
      7 C7         -7.5551    0.9361   65.8998 C.ar    1  <0>        -0.0300
      8 Cl8        -6.1429    0.3392   66.7141 Cl      1  <0>        -0.0700
      9 C9         -7.9995    0.3199   64.7435 C.ar    1  <0>        -0.1100
     10 C10        -9.1275    0.7917   64.0989 C.ar    1  <0>        -0.0900
     11 N11       -10.9297    2.1113   62.4646 N.am    1  <0>        -0.6100
     12 C12       -10.2180    3.0341   61.5769 C.3     1  <0>         0.0600
     13 C13       -11.4911    0.9929   61.9640 C.2     1  <0>         0.5200
     14 O14       -12.0790    0.2281   62.6992 O.2     1  <0>        -0.5200
     15 C15       -11.3884    0.6925   60.4908 C.3     1  <0>         0.0300
     16 N16       -11.8510   -0.6784   60.2371 N.3     1  <0>        -0.4900
     17 C17       -10.7136   -1.5684   59.8906 C.3     1  <0>         0.0400
     18 C18       -11.3991   -2.7545   59.1669 C.3     1  <0>        -0.1400
     19 C19       -12.5228   -2.0643   58.3601 C.3     1  <0>         0.1100
     20 O20       -12.1001   -1.8388   57.0138 O.3     1  <0>        -0.5400
     21 C21       -13.7735   -2.9046   58.3808 C.2     1  <0>         0.5000
     22 N22       -14.4068   -3.1419   59.5466 N.am    1  <0>        -0.8500
     23 O23       -14.2104   -3.3674   57.3483 O.2     1  <0>        -0.5200
     24 C24       -12.7659   -0.7226   59.0758 C.3     1  <0>         0.0600
     25 H25       -11.2127    4.1343   65.1668 H       1  <0>         0.0700
     26 H26       -10.2506    4.4016   63.6933 H       1  <0>         0.0600
     27 H27       -12.0241    4.2911   63.5903 H       1  <0>         0.0700
     28 H28        -9.8935    3.3548   66.1540 H       1  <0>         0.1400
     29 H29        -7.8903    2.5096   67.3094 H       1  <0>         0.1300
     30 H30        -7.4675   -0.5322   64.3469 H       1  <0>         0.1400
     31 H31        -9.4746    0.3105   63.1965 H       1  <0>         0.1300
     32 H32        -9.1595    2.7751   61.5566 H       1  <0>         0.0600
     33 H33       -10.6295    2.9599   60.5702 H       1  <0>         0.0800
     34 H34       -10.3357    4.0539   61.9431 H       1  <0>         0.0800
     35 H35       -12.0083    1.3944   59.9329 H       1  <0>         0.1100
     36 H36       -10.3509    0.7909   60.1715 H       1  <0>         0.0700
     37 H37       -10.0174   -1.0609   59.2229 H       1  <0>         0.0400
     38 H38       -10.2041   -1.9101   60.7917 H       1  <0>         0.1200
     39 H39       -10.6982   -3.2567   58.5001 H       1  <0>         0.0900
     40 H40       -11.8175   -3.4566   59.8881 H       1  <0>         0.0900
     41 H41       -12.7146   -1.3038   56.4930 H       1  <0>         0.3800
     42 H42       -15.2112   -3.6837   59.5602 H       1  <0>         0.4000
     43 H43       -14.0580   -2.7707   60.3723 H       1  <0>         0.4100
     44 H44       -13.8001   -0.6649   59.4153 H       1  <0>         0.1100
     45 H45       -12.5477    0.1039   58.3995 H       1  <0>         0.0700
@<TRIPOS>BOND
     1     1     2    1
     2     1    25    1
     3     1    26    1
     4     1    27    1
     5     2     3    1
     6     2     4    1
     7     2    11    1
     8     4    10   ar
     9     4     5   ar
    10     5     6   ar
    11     5    28    1
    12     6     7   ar
    13     6    29    1
    14     7     8    1
    15     7     9   ar
    16     9    10   ar
    17     9    30    1
    18    10    31    1
    19    11    12    1
    20    11    13   am
    21    12    32    1
    22    12    33    1
    23    12    34    1
    24    13    14    2
    25    13    15    1
    26    15    16    1
    27    15    35    1
    28    15    36    1
    29    16    24    1
    30    16    17    1
    31    17    18    1
    32    17    37    1
    33    17    38    1
    34    18    19    1
    35    18    39    1
    36    18    40    1
    37    19    20    1
    38    19    21    1
    39    19    24    1
    40    20    41    1
    41    21    22   am
    42    21    23    2
    43    22    42    1
    44    22    43    1
    45    24    44    1
    46    24    45    1
@<TRIPOS>SUBSTRUCTURE
     1 <0>         1 TEMP              0 ****  ****    0 ROOT


##########                                Name:    ZINC000787750060
##########                DOCK_Rotatable_Bonds:                   6
##########                         Heavy_Atoms:                  24
##########                    Molecular_Weight:             347.438
##########                DOCK_Rotatable_Bonds:                   6
##########                       Formal_Charge:           0.0200003
##########                     HBond_Acceptors:                   7
##########                        HBond_Donors:                   2
##########                         Heavy_Atoms:                  24
##########                          Grid_Score:          -27.310770
##########                     Grid_vdw_energy:          -26.144175
##########                      Grid_es_energy:           -1.166596
##########           Internal_energy_repulsive:            8.648577

@<TRIPOS>MOLECULE
ZINC000787750060
 45 47 1 0 0
SMALL
USER_CHARGES


@<TRIPOS>ATOM
      1 C1        -15.3700   -3.4963   57.0001 C.3     1  ZINC000787750060   -0.1200
      2 C2        -14.1580   -3.1400   57.8218 C.ar    1  ZINC000787750060   -0.0400
      3 C3        -12.9043   -3.5729   57.4229 C.ar    1  ZINC000787750060   -0.1300
      4 C4        -11.7889   -3.2530   58.1668 C.ar    1  ZINC000787750060   -0.0700
      5 C5        -11.9221   -2.4885   59.3281 C.ar    1  ZINC000787750060   -0.1700
      6 C6        -10.7324   -2.1420   60.1288 C.2     1  ZINC000787750060    0.5600
      7 O7         -9.9701   -3.0157   60.4946 O.2     1  ZINC000787750060   -0.5200
      8 N8        -10.4906   -0.8568   60.4548 N.am    1  ZINC000787750060   -0.7300
      9 C9         -9.3101   -0.5129   61.2514 C.3     1  ZINC000787750060    0.2100
     10 C10        -9.6367    0.6448   62.1593 C.2     1  ZINC000787750060   -0.2800
     11 C11       -10.5186    1.6125   61.9075 C.2     1  ZINC000787750060    0.0900
     12 N12       -10.6274    2.5191   62.8625 N.2     1  ZINC000787750060   -0.5200
     13 C13        -9.8777    2.3609   63.9088 C.2     1  ZINC000787750060    0.2300
     14 N14        -9.8568    3.2078   65.0059 N.3     1  ZINC000787750060   -0.4500
     15 C15       -10.2637    4.5691   64.6284 C.3     1  ZINC000787750060    0.0200
     16 C16       -10.2843    5.4546   65.8771 C.3     1  ZINC000787750060    0.0600
     17 O17        -8.9955    5.4268   66.4964 O.3     1  ZINC000787750060   -0.3800
     18 C18        -8.5680    4.1164   66.8777 C.3     1  ZINC000787750060    0.0600
     19 C19        -8.5301    3.2174   65.6389 C.3     1  ZINC000787750060    0.0300
     20 S20        -8.9253    0.9510   63.7416 S.3     1  ZINC000787750060    0.1700
     21 C21       -13.1927   -2.0520   59.7282 C.ar    1  ZINC000787750060    0.1700
     22 O22       -13.3345   -1.3089   60.8543 O.3     1  ZINC000787750060   -0.4700
     23 C23       -14.3033   -2.3791   58.9651 C.ar    1  ZINC000787750060   -0.1200
     24 C24       -15.6720   -1.9129   59.3898 C.3     1  ZINC000787750060   -0.1200
     25 H25       -15.5382   -2.7257   56.2477 H       1  ZINC000787750060    0.0800
     26 H26       -15.2063   -4.4550   56.5079 H       1  ZINC000787750060    0.0700
     27 H27       -16.2421   -3.5658   57.6502 H       1  ZINC000787750060    0.0800
     28 H28       -12.8002   -4.1641   56.5251 H       1  ZINC000787750060    0.1300
     29 H29       -10.8134   -3.5933   57.8523 H       1  ZINC000787750060    0.1300
     30 H30       -11.0981   -0.1596   60.1620 H       1  ZINC000787750060    0.4000
     31 H31        -9.0138   -1.3730   61.8518 H       1  ZINC000787750060    0.0900
     32 H32        -8.4921   -0.2341   60.5873 H       1  ZINC000787750060    0.0800
     33 H33       -11.0974    1.6522   60.9965 H       1  ZINC000787750060    0.1800
     34 H34        -9.5542    4.9741   63.9067 H       1  ZINC000787750060    0.0600
     35 H35       -11.2591    4.5418   64.1852 H       1  ZINC000787750060    0.1000
     36 H36       -10.5299    6.4781   65.5937 H       1  ZINC000787750060    0.1100
     37 H37       -11.0322    5.0805   66.5763 H       1  ZINC000787750060    0.0700
     38 H38        -7.5723    4.1719   67.3177 H       1  ZINC000787750060    0.1100
     39 H39        -9.2660    3.7033   67.6059 H       1  ZINC000787750060    0.0600
     40 H40        -8.2600    2.2033   65.9335 H       1  ZINC000787750060    0.1000
     41 H41        -7.7929    3.6007   64.9334 H       1  ZINC000787750060    0.0700
     42 H42       -12.4982   -1.0810   61.2830 H       1  ZINC000787750060    0.4000
     43 H43       -15.8788   -0.9399   58.9441 H       1  ZINC000787750060    0.0700
     44 H44       -16.4204   -2.6317   59.0564 H       1  ZINC000787750060    0.0700
     45 H45       -15.7067   -1.8297   60.4761 H       1  ZINC000787750060    0.0800
@<TRIPOS>BOND
     1     1     2    1
     2     1    25    1
     3     1    26    1
     4     1    27    1
     5     2    23   ar
     6     2     3   ar
     7     3     4   ar
     8     3    28    1
     9     4     5   ar
    10     4    29    1
    11     5     6    1
    12     5    21   ar
    13     6     7    2
    14     6     8   am
    15     8     9    1
    16     8    30    1
    17     9    10    1
    18     9    31    1
    19     9    32    1
    20    10    20    1
    21    10    11    2
    22    11    12    1
    23    11    33    1
    24    12    13    2
    25    13    14    1
    26    13    20    1
    27    14    19    1
    28    14    15    1
    29    15    16    1
    30    15    34    1
    31    15    35    1
    32    16    17    1
    33    16    36    1
    34    16    37    1
    35    17    18    1
    36    18    19    1
    37    18    38    1
    38    18    39    1
    39    19    40    1
    40    19    41    1
    41    21    22    1
    42    21    23   ar
    43    22    42    1
    44    23    24    1
    45    24    43    1
    46    24    44    1
    47    24    45    1
@<TRIPOS>SUBSTRUCTURE
     1 ZINC000787750060        1 TEMP              0 ****  ****    0 ROOT


##########                                Name:     oleObject17.pdb
##########                DOCK_Rotatable_Bonds:                   8
##########                         Heavy_Atoms:                  29
##########                    Molecular_Weight:             435.393
##########                DOCK_Rotatable_Bonds:                   8
##########                       Formal_Charge:         0.000400059
##########                     HBond_Acceptors:                   6
##########                        HBond_Donors:                   0
##########                         Heavy_Atoms:                  29
##########                          Grid_Score:          -27.266392
##########                     Grid_vdw_energy:          -26.607925
##########                      Grid_es_energy:           -0.658466
##########           Internal_energy_repulsive:           22.672344

@<TRIPOS>MOLECULE
oleObject17.pdb
 57 59 1 0 0
SMALL
NO_CHARGES


@<TRIPOS>ATOM
      1 C         -12.8864   -3.1177   58.1760 C.3     1  UNL         0.0391
      2 C         -11.4008   -3.3303   57.8769 C.ar    1  UNL        -0.0277
      3 C         -10.3940   -3.2164   58.8686 C.ar    1  UNL        -0.0463
      4 C          -9.0438   -3.3948   58.5081 C.ar    1  UNL        -0.0590
      5 C          -8.6872   -3.6863   57.1835 C.ar    1  UNL        -0.0620
      6 C          -9.6824   -3.8165   56.2059 C.ar    1  UNL        -0.0619
      7 C         -11.0301   -3.6447   56.5545 C.ar    1  UNL        -0.0572
      8 C         -10.7212   -2.9119   60.3264 C.3     1  UNL        -0.0394
      9 N         -13.4105   -1.8599   57.6018 N.am    1  UNL        -0.3003
     10 C         -13.4646   -0.6907   58.3602 C.2     1  UNL         0.2175
     11 O         -12.8071   -0.5993   59.3830 O.2     1  UNL        -0.2772
     12 C         -14.0330    0.5697   57.6559 C.3     1  UNL         0.0384
     13 C         -13.0034    1.2448   56.7149 C.3     1  UNL        -0.0289
     14 C         -11.8604    1.9038   57.5112 C.3     1  UNL        -0.0010
     15 N         -12.3687    2.8981   58.4815 N.4     1  UNL        -0.3010
     16 C         -13.4136    2.3835   59.3975 C.3     1  UNL        -0.0010
     17 C         -14.5533    1.6387   58.6553 C.3     1  UNL        -0.0289
     18 C         -11.2937    3.6522   59.1662 C.3     1  UNL         0.0222
     19 C         -10.2246    2.7487   59.8234 C.3     1  UNL         0.0661
     20 O         -10.8235    2.0819   60.9474 O.3     1  UNL        -0.3432
     21 C         -10.0892    1.6200   62.0230 C.ar    1  UNL         0.0937
     22 C          -9.5445    0.3180   62.0509 C.ar    1  UNL        -0.0288
     23 C          -8.7965   -0.1121   63.1592 C.ar    1  UNL        -0.0408
     24 C          -8.5902    0.7522   64.2458 C.ar    1  UNL         0.0422
     25 C          -9.1317    2.0470   64.2276 C.ar    1  UNL        -0.0221
     26 C          -9.8797    2.4802   63.1200 C.ar    1  UNL         0.0723
     27 CL        -10.5375    4.1059   63.1263 Cl      1  UNL        -0.0814
     28 CL         -7.6567    0.2137   65.6255 Cl      1  UNL        -0.0843
     29 C         -13.8713   -1.9268   56.2029 C.3     1  UNL         0.0031
     30 H         -13.0747   -3.1071   59.2553 H       1  UNL         0.0520
     31 H         -13.4447   -3.9702   57.7693 H       1  UNL         0.0520
     32 H          -8.2627   -3.3066   59.2578 H       1  UNL         0.0626
     33 H          -7.6421   -3.8177   56.9176 H       1  UNL         0.0623
     34 H          -9.4106   -4.0481   55.1801 H       1  UNL         0.0623
     35 H         -11.7926   -3.7435   55.7876 H       1  UNL         0.0626
     36 H         -11.4490   -3.6280   60.7274 H       1  UNL         0.0280
     37 H         -11.1356   -1.9036   60.4388 H       1  UNL         0.0280
     38 H          -9.8294   -2.9698   60.9626 H       1  UNL         0.0280
     39 H         -14.8886    0.2443   57.0524 H       1  UNL         0.0402
     40 H         -13.5097    2.0150   56.1188 H       1  UNL         0.0288
     41 H         -12.5888    0.5266   55.9999 H       1  UNL         0.0288
     42 H         -11.1697    2.3868   56.8081 H       1  UNL         0.0431
     43 H         -11.3067    1.1170   58.0359 H       1  UNL         0.0431
     44 H         -13.8490    3.2166   59.9640 H       1  UNL         0.0431
     45 H         -12.9628    1.7011   60.1267 H       1  UNL         0.0431
     46 H         -15.1463    2.3784   58.1021 H       1  UNL         0.0288
     47 H         -15.2328    1.1775   59.3834 H       1  UNL         0.0288
     48 H         -11.7329    4.2970   59.9382 H       1  UNL         0.0455
     49 H         -10.7960    4.3086   58.4409 H       1  UNL         0.0455
     50 H          -9.3809    3.3575   60.1679 H       1  UNL         0.0586
     51 H          -9.8583    2.0118   59.0984 H       1  UNL         0.0586
     52 H          -9.6943   -0.3684   61.2239 H       1  UNL         0.0651
     53 H          -8.3789   -1.1149   63.1747 H       1  UNL         0.0639
     54 H          -8.9717    2.7147   65.0695 H       1  UNL         0.0655
     55 H         -14.3122   -2.9100   55.9951 H       1  UNL         0.0433
     56 H         -13.0285   -1.7643   55.5203 H       1  UNL         0.0433
     57 H         -14.6383   -1.1644   56.0195 H       1  UNL         0.0433
@<TRIPOS>BOND
     1     1     2    1
     2     1     9    1
     3     1    30    1
     4     1    31    1
     5     2     3   ar
     6     2     7   ar
     7     3     4   ar
     8     3     8    1
     9     4     5   ar
    10     4    32    1
    11     5     6   ar
    12     5    33    1
    13     6     7   ar
    14     6    34    1
    15     7    35    1
    16     8    36    1
    17     8    37    1
    18     8    38    1
    19     9    10   am
    20     9    29    1
    21    10    11    2
    22    10    12    1
    23    12    13    1
    24    12    17    1
    25    12    39    1
    26    13    14    1
    27    13    40    1
    28    13    41    1
    29    14    15    1
    30    14    42    1
    31    14    43    1
    32    15    16    1
    33    15    18    1
    34    16    17    1
    35    16    44    1
    36    16    45    1
    37    17    46    1
    38    17    47    1
    39    18    19    1
    40    18    48    1
    41    18    49    1
    42    19    20    1
    43    19    50    1
    44    19    51    1
    45    20    21    1
    46    21    22   ar
    47    21    26   ar
    48    22    23   ar
    49    22    52    1
    50    23    24   ar
    51    23    53    1
    52    24    25   ar
    53    24    28    1
    54    25    26   ar
    55    25    54    1
    56    26    27    1
    57    29    55    1
    58    29    56    1
    59    29    57    1
@<TRIPOS>SUBSTRUCTURE
     1 UNL         1 TEMP              0 ****  ****    0 ROOT


##########                                Name:    ZINC000440379747
##########                DOCK_Rotatable_Bonds:                   8
##########                         Heavy_Atoms:                  27
##########                    Molecular_Weight:             394.452
##########                DOCK_Rotatable_Bonds:                   8
##########                       Formal_Charge:           0.0199995
##########                     HBond_Acceptors:                  10
##########                        HBond_Donors:                   3
##########                         Heavy_Atoms:                  27
##########                          Grid_Score:          -27.254337
##########                     Grid_vdw_energy:          -25.283436
##########                      Grid_es_energy:           -1.970901
##########           Internal_energy_repulsive:           81.831291

@<TRIPOS>MOLECULE
ZINC000440379747
 49 51 1 0 0
SMALL
USER_CHARGES


@<TRIPOS>ATOM
      1 C1         -9.6203   -2.6827   58.9566 C.3     1  ZINC000440379747   -0.1800
      2 C2        -11.0874   -2.3467   59.0331 C.2     1  ZINC000440379747    0.5200
      3 O3        -11.8649   -2.8420   58.2447 O.2     1  ZINC000440379747   -0.5200
      4 N4        -11.5356   -1.4958   59.9773 N.am    1  ZINC000440379747   -0.5500
      5 C5        -12.9340   -1.0940   60.1506 C.3     1  ZINC000440379747    0.1100
      6 C6        -12.9308   -0.1254   61.3444 C.3     1  ZINC000440379747   -0.0900
      7 C7        -11.4818   -0.0501   61.7705 C.ar    1  ZINC000440379747   -0.1100
      8 C8        -10.8740    0.6607   62.7860 C.ar    1  ZINC000440379747   -0.0700
      9 C9         -9.5020    0.5624   62.9806 C.ar    1  ZINC000440379747    0.1200
     10 N10        -8.8849    1.2813   64.0090 N.am    1  ZINC000440379747   -0.6400
     11 C11        -8.5185    0.6538   65.1441 C.2     1  ZINC000440379747    0.5100
     12 O12        -8.7244   -0.5355   65.2737 O.2     1  ZINC000440379747   -0.4900
     13 C13        -7.8594    1.4215   66.2423 C.2     1  ZINC000440379747    0.5200
     14 O14        -7.1643    0.8452   67.0533 O.2     1  ZINC000440379747   -0.5100
     15 N15        -8.0365    2.7546   66.3330 N.am    1  ZINC000440379747   -0.5800
     16 C16        -7.4479    3.6315   67.3616 C.3     1  ZINC000440379747    0.1000
     17 C17        -7.4113    5.0368   66.7109 C.3     1  ZINC000440379747   -0.1300
     18 C18        -8.7332    5.0385   65.8985 C.3     1  ZINC000440379747   -0.1600
     19 C19        -8.8434    3.5758   65.4187 C.3     1  ZINC000440379747    0.1500
     20 H20        -8.4623    3.4898   64.4011 H       1  ZINC000440379747    0.1000
     21 C21       -10.3033    3.1208   65.4677 C.3     1  ZINC000440379747   -0.6500
     22 S22       -11.2588    4.0183   64.2139 S.o2    1  ZINC000440379747    2.6200
     23 N23       -10.5987    3.5415   62.7719 N.am    1  ZINC000440379747   -1.2500
     24 O24       -12.5944    3.5355   64.1646 O.2     1  ZINC000440379747   -0.9500
     25 O25       -10.9852    5.4110   64.2810 O.2     1  ZINC000440379747   -0.9500
     26 C26        -8.7462   -0.2541   62.1487 C.ar    1  ZINC000440379747   -0.1000
     27 C27        -9.3549   -0.9627   61.1359 C.ar    1  ZINC000440379747   -0.1400
     28 C28       -10.7343   -0.8712   60.9401 C.ar    1  ZINC000440379747    0.1400
     29 H29        -9.4497   -3.3805   58.1369 H       1  ZINC000440379747    0.1000
     30 H30        -9.0475   -1.7717   58.7835 H       1  ZINC000440379747    0.1000
     31 H31        -9.3028   -3.1389   59.8942 H       1  ZINC000440379747    0.1000
     32 H32       -13.2959   -0.5889   59.2549 H       1  ZINC000440379747    0.0900
     33 H33       -13.5528   -1.9638   60.3711 H       1  ZINC000440379747    0.0900
     34 H34       -13.2883    0.8575   61.0373 H       1  ZINC000440379747    0.0900
     35 H35       -13.5453   -0.5184   62.1543 H       1  ZINC000440379747    0.1000
     36 H36       -11.4659    1.2943   63.4298 H       1  ZINC000440379747    0.1400
     37 H37        -8.7205    2.2316   63.9055 H       1  ZINC000440379747    0.4200
     38 H38        -8.0740    3.6428   68.2539 H       1  ZINC000440379747    0.0800
     39 H39        -6.4390    3.3016   67.6093 H       1  ZINC000440379747    0.1000
     40 H40        -7.4183    5.8191   67.4699 H       1  ZINC000440379747    0.1000
     41 H41        -6.5483    5.1404   66.0531 H       1  ZINC000440379747    0.0800
     42 H42        -9.5769    5.3039   66.5352 H       1  ZINC000440379747    0.1000
     43 H43        -8.6622    5.7165   65.0479 H       1  ZINC000440379747    0.1000
     44 H44       -10.3572    2.0505   65.2684 H       1  ZINC000440379747    0.1500
     45 H45       -10.7153    3.3276   66.4554 H       1  ZINC000440379747    0.1400
     46 H46       -10.6059    2.6044   62.5214 H       1  ZINC000440379747    0.4100
     47 H47       -10.2048    4.1993   62.1777 H       1  ZINC000440379747    0.4200
     48 H48        -7.6793   -0.3333   62.2961 H       1  ZINC000440379747    0.1400
     49 H49        -8.7620   -1.5955   60.4922 H       1  ZINC000440379747    0.1500
@<TRIPOS>BOND
     1     1     2    1
     2     1    29    1
     3     1    30    1
     4     1    31    1
     5     2     3    2
     6     2     4   am
     7     4    28    1
     8     4     5    1
     9     5     6    1
    10     5    32    1
    11     5    33    1
    12     6     7    1
    13     6    34    1
    14     6    35    1
    15     7    28   ar
    16     7     8   ar
    17     8     9   ar
    18     8    36    1
    19     9    10    1
    20     9    26   ar
    21    10    11   am
    22    10    37    1
    23    11    12    2
    24    11    13    1
    25    13    14    2
    26    13    15   am
    27    15    19    1
    28    15    16    1
    29    16    17    1
    30    16    38    1
    31    16    39    1
    32    17    18    1
    33    17    40    1
    34    17    41    1
    35    18    19    1
    36    18    42    1
    37    18    43    1
    38    19    20    1
    39    19    21    1
    40    21    22    1
    41    21    44    1
    42    21    45    1
    43    22    23   am
    44    22    24    2
    45    22    25    2
    46    23    46    1
    47    23    47    1
    48    26    27   ar
    49    26    48    1
    50    27    28   ar
    51    27    49    1
@<TRIPOS>SUBSTRUCTURE
     1 ZINC000440379747        1 TEMP              0 ****  ****    0 ROOT


##########                                Name:    ZINC000768148687
##########                DOCK_Rotatable_Bonds:                   8
##########                         Heavy_Atoms:                  25
##########                    Molecular_Weight:             371.307
##########                DOCK_Rotatable_Bonds:                   8
##########                       Formal_Charge:         2.98023e-08
##########                     HBond_Acceptors:                  11
##########                        HBond_Donors:                   0
##########                         Heavy_Atoms:                  25
##########                          Grid_Score:          -27.252701
##########                     Grid_vdw_energy:          -25.740330
##########                      Grid_es_energy:           -1.512372
##########           Internal_energy_repulsive:           10.997815

@<TRIPOS>MOLECULE
ZINC000768148687
 43 44 1 0 0
SMALL
USER_CHARGES


@<TRIPOS>ATOM
      1 C1         -8.1767   -0.5605   64.9673 C.3     1  ZINC000768148687   -0.1800
      2 C2         -8.4056   -1.0210   63.5263 C.3     1  ZINC000768148687    0.1100
      3 N3         -9.2652   -0.0563   62.8360 N.pl3   1  ZINC000768148687   -0.3100
      4 N4         -9.7779    1.1230   63.3877 N.2     1  ZINC000768148687   -0.2000
      5 C5        -10.4994    1.7321   62.4879 C.2     1  ZINC000768148687    0.0200
      6 C6        -11.2305    3.0367   62.6734 C.3     1  ZINC000768148687    0.5500
      7 F7        -12.5973    2.8416   62.4475 F       1  ZINC000768148687   -0.1600
      8 F8        -11.0352    3.4991   63.9793 F       1  ZINC000768148687   -0.1600
      9 F9        -10.7379    3.9805   61.7659 F       1  ZINC000768148687   -0.1500
     10 C10       -10.4754    0.9539   61.3083 C.2     1  ZINC000768148687   -0.1800
     11 C11       -11.1566    1.2664   60.0403 C.2     1  ZINC000768148687    0.5300
     12 O12       -10.8486    2.2613   59.4143 O.2     1  ZINC000768148687   -0.4700
     13 O13       -12.1214    0.4490   59.5744 O.3     1  ZINC000768148687   -0.3400
     14 C14       -12.9569    0.9595   58.5023 C.3     1  ZINC000768148687    0.0200
     15 C15       -14.2811    0.1936   58.4789 C.3     1  ZINC000768148687    0.0600
     16 N16       -14.0215   -1.2395   58.6706 N.3     1  ZINC000768148687   -0.5300
     17 C17       -13.4463   -1.8376   57.4570 C.3     1  ZINC000768148687    0.0100
     18 C18       -13.1369   -3.3139   57.7195 C.3     1  ZINC000768148687    0.0600
     19 O19       -14.3319   -3.9793   58.1370 O.3     1  ZINC000768148687   -0.3800
     20 C20       -14.9185   -3.4231   59.3167 C.3     1  ZINC000768148687    0.0600
     21 C21       -15.2461   -1.9479   59.0704 C.3     1  ZINC000768148687    0.0100
     22 C22        -9.6887   -0.1520   61.5659 C.2     1  ZINC000768148687    0.0600
     23 C23        -9.3725   -1.2660   60.6016 C.3     1  ZINC000768148687    0.3400
     24 F24       -10.1744   -2.3752   60.8913 F       1  ZINC000768148687   -0.1700
     25 F25        -9.6249   -0.8368   59.2943 F       1  ZINC000768148687   -0.1800
     26 H26        -7.5370   -1.2783   65.4808 H       1  ZINC000768148687    0.0900
     27 H27        -7.6955    0.4176   64.9640 H       1  ZINC000768148687    0.0700
     28 H28        -9.1342   -0.4926   65.4835 H       1  ZINC000768148687    0.0700
     29 H29        -7.4480   -1.0889   63.0100 H       1  ZINC000768148687    0.1100
     30 H30        -8.8867   -1.9991   63.5296 H       1  ZINC000768148687    0.1200
     31 H31       -13.1527    2.0190   58.6673 H       1  ZINC000768148687    0.0800
     32 H32       -12.4448    0.8289   57.5490 H       1  ZINC000768148687    0.0800
     33 H33       -14.9249    0.5564   59.2802 H       1  ZINC000768148687    0.1100
     34 H34       -14.7735    0.3484   57.5190 H       1  ZINC000768148687    0.0900
     35 H35       -14.1601   -1.7555   56.6374 H       1  ZINC000768148687    0.0500
     36 H36       -12.5271   -1.3142   57.1938 H       1  ZINC000768148687    0.0900
     37 H37       -12.7634   -3.7755   56.8054 H       1  ZINC000768148687    0.1000
     38 H38       -12.3830   -3.3940   58.5027 H       1  ZINC000768148687    0.0600
     39 H39       -15.8337   -3.9637   59.5578 H       1  ZINC000768148687    0.1000
     40 H40       -14.2165   -3.5063   60.1463 H       1  ZINC000768148687    0.0600
     41 H41       -15.6407   -1.5051   59.9849 H       1  ZINC000768148687    0.0800
     42 H42       -15.9887   -1.8677   58.2765 H       1  ZINC000768148687    0.0700
     43 H43        -8.3224   -1.5420   60.6970 H       1  ZINC000768148687    0.1500
@<TRIPOS>BOND
     1     1     2    1
     2     1    26    1
     3     1    27    1
     4     1    28    1
     5     2     3    1
     6     2    29    1
     7     2    30    1
     8     3    22    1
     9     3     4    1
    10     4     5    2
    11     5     6    1
    12     5    10    1
    13     6     7    1
    14     6     8    1
    15     6     9    1
    16    10    11    1
    17    10    22    2
    18    11    12    2
    19    11    13    1
    20    13    14    1
    21    14    15    1
    22    14    31    1
    23    14    32    1
    24    15    16    1
    25    15    33    1
    26    15    34    1
    27    16    21    1
    28    16    17    1
    29    17    18    1
    30    17    35    1
    31    17    36    1
    32    18    19    1
    33    18    37    1
    34    18    38    1
    35    19    20    1
    36    20    21    1
    37    20    39    1
    38    20    40    1
    39    21    41    1
    40    21    42    1
    41    22    23    1
    42    23    24    1
    43    23    25    1
    44    23    43    1
@<TRIPOS>SUBSTRUCTURE
     1 ZINC000768148687        1 TEMP              0 ****  ****    0 ROOT


##########                                Name:    ZINC001135312623
##########                DOCK_Rotatable_Bonds:                   3
##########                         Heavy_Atoms:                  25
##########                    Molecular_Weight:             341.323
##########                DOCK_Rotatable_Bonds:                   3
##########                       Formal_Charge:        -1.78814e-07
##########                     HBond_Acceptors:                   8
##########                        HBond_Donors:                   2
##########                         Heavy_Atoms:                  25
##########                          Grid_Score:          -27.250097
##########                     Grid_vdw_energy:          -27.399302
##########                      Grid_es_energy:            0.149204
##########           Internal_energy_repulsive:            7.714380

@<TRIPOS>MOLECULE
ZINC001135312623
 40 42 1 0 0
SMALL
USER_CHARGES


@<TRIPOS>ATOM
      1 C1        -12.7316    0.0448   60.5035 C.3     1  ZINC001135312623   -0.1300
      2 C2        -11.6254   -0.8293   59.9714 C.ar    1  ZINC001135312623   -0.0600
      3 C3        -11.9031   -1.7968   59.0261 C.ar    1  ZINC001135312623   -0.1000
      4 C4        -10.8885   -2.5998   58.5375 C.ar    1  ZINC001135312623   -0.0300
      5 C5        -11.1952   -3.6547   57.5059 C.3     1  ZINC001135312623   -0.1300
      6 C6         -9.5933   -2.4364   58.9931 C.ar    1  ZINC001135312623   -0.0200
      7 N7         -8.5106   -3.2980   58.4675 N.pl3   1  ZINC001135312623    0.0200
      8 O8         -7.6042   -3.6521   59.2001 O.2     1  ZINC001135312623   -0.1500
      9 O9         -8.5259   -3.6529   57.3025 O.2     1  ZINC001135312623   -0.1500
     10 C10        -9.3087   -1.4699   59.9379 C.ar    1  ZINC001135312623   -0.0700
     11 C11       -10.3242   -0.6588   60.4270 C.ar    1  ZINC001135312623    0.1500
     12 N12       -10.0395    0.3208   61.3836 N.am    1  ZINC001135312623   -0.6600
     13 C13        -9.3506   -0.0035   62.4958 C.2     1  ZINC001135312623    0.5600
     14 O14        -8.9768   -1.1478   62.6674 O.2     1  ZINC001135312623   -0.5000
     15 C15        -9.0502    1.0301   63.5051 C.ar    1  ZINC001135312623   -0.1600
     16 C16        -8.7271    0.6582   64.8129 C.ar    1  ZINC001135312623   -0.0400
     17 C17        -8.4474    1.6237   65.7550 C.ar    1  ZINC001135312623   -0.1500
     18 C18        -8.4862    2.9669   65.4033 C.ar    1  ZINC001135312623    0.2000
     19 N19        -8.2095    3.9607   66.3424 N.am    1  ZINC001135312623   -0.6700
     20 C20        -8.5534    5.2382   66.0832 C.2     1  ZINC001135312623    0.6600
     21 O21        -8.2895    6.1064   66.8914 O.2     1  ZINC001135312623   -0.4900
     22 O22        -9.1846    5.5636   64.9408 O.3     1  ZINC001135312623   -0.3400
     23 C23        -8.8383    4.8070   63.7484 C.3     1  ZINC001135312623    0.1100
     24 C24        -8.8066    3.3403   64.0990 C.ar    1  ZINC001135312623   -0.1800
     25 C25        -9.0825    2.3836   63.1530 C.ar    1  ZINC001135312623    0.0000
     26 H26       -12.8239    0.9340   59.8800 H       1  ZINC001135312623    0.0900
     27 H27       -13.6708   -0.5083   60.4889 H       1  ZINC001135312623    0.0800
     28 H28       -12.5003    0.3410   61.5267 H       1  ZINC001135312623    0.0700
     29 H29       -12.9136   -1.9269   58.6682 H       1  ZINC001135312623    0.1500
     30 H30       -11.1740   -3.2079   56.5119 H       1  ZINC001135312623    0.0900
     31 H31       -10.4493   -4.4473   57.5640 H       1  ZINC001135312623    0.0800
     32 H32       -12.1842   -4.0718   57.6957 H       1  ZINC001135312623    0.0800
     33 H33        -8.2967   -1.3429   60.2934 H       1  ZINC001135312623    0.1700
     34 H34       -10.3377    1.2336   61.2468 H       1  ZINC001135312623    0.4200
     35 H35        -8.6971   -0.3865   65.0853 H       1  ZINC001135312623    0.1400
     36 H36        -8.1983    1.3366   66.7658 H       1  ZINC001135312623    0.1500
     37 H37        -7.7721    3.7335   67.1779 H       1  ZINC001135312623    0.4300
     38 H38        -9.5857    4.9820   62.9744 H       1  ZINC001135312623    0.1300
     39 H39        -7.8572    5.1186   63.3897 H       1  ZINC001135312623    0.1000
     40 H40        -9.3273    2.6752   62.1423 H       1  ZINC001135312623    0.1500
@<TRIPOS>BOND
     1     1     2    1
     2     1    26    1
     3     1    27    1
     4     1    28    1
     5     2    11   ar
     6     2     3   ar
     7     3     4   ar
     8     3    29    1
     9     4     5    1
    10     4     6   ar
    11     5    30    1
    12     5    31    1
    13     5    32    1
    14     6     7    1
    15     6    10   ar
    16     7     8    2
    17     7     9    2
    18    10    11   ar
    19    10    33    1
    20    11    12    1
    21    12    13   am
    22    12    34    1
    23    13    14    2
    24    13    15    1
    25    15    25   ar
    26    15    16   ar
    27    16    17   ar
    28    16    35    1
    29    17    18   ar
    30    17    36    1
    31    18    24   ar
    32    18    19    1
    33    19    20   am
    34    19    37    1
    35    20    21    2
    36    20    22    1
    37    22    23    1
    38    23    24    1
    39    23    38    1
    40    23    39    1
    41    24    25   ar
    42    25    40    1
@<TRIPOS>SUBSTRUCTURE
     1 ZINC001135312623        1 TEMP              0 ****  ****    0 ROOT


##########                                Name:    ZINC000774689801
##########                DOCK_Rotatable_Bonds:                   4
##########                         Heavy_Atoms:                  24
##########                    Molecular_Weight:             347.395
##########                DOCK_Rotatable_Bonds:                   4
##########                       Formal_Charge:         -0.00999961
##########                     HBond_Acceptors:                   8
##########                        HBond_Donors:                   1
##########                         Heavy_Atoms:                  24
##########                          Grid_Score:          -27.205187
##########                     Grid_vdw_energy:          -26.564564
##########                      Grid_es_energy:           -0.640623
##########           Internal_energy_repulsive:            5.785738

@<TRIPOS>MOLECULE
ZINC000774689801
 41 44 1 0 0
SMALL
USER_CHARGES


@<TRIPOS>ATOM
      1 C1         -2.2825    5.5479   55.2633 C.3     1  ZINC000774689801   -0.1200
      2 C2         -2.0239    4.3972   54.3250 C.2     1  ZINC000774689801    0.0600
      3 C3         -0.8030    3.8608   54.1686 C.2     1  ZINC000774689801   -0.2800
      4 C4          0.4021    4.3100   54.8689 C.2     1  ZINC000774689801    0.5500
      5 O5          1.4001    4.6001   54.2370 O.2     1  ZINC000774689801   -0.4900
      6 O6          0.4054    4.4021   56.2147 O.3     1  ZINC000774689801   -0.3400
      7 C7         -0.0971    3.2584   56.9549 C.3     1  ZINC000774689801    0.0900
      8 C8          0.0372    3.5234   58.4558 C.3     1  ZINC000774689801   -0.1300
      9 H9          1.0647    3.7881   58.7051 H       1  ZINC000774689801    0.1200
     10 C10        -0.9325    4.6444   58.8963 C.3     1  ZINC000774689801   -0.1300
     11 C11        -1.3674    4.1532   60.2949 C.3     1  ZINC000774689801    0.1000
     12 N12        -1.1973    2.6956   60.2683 N.am    1  ZINC000774689801   -0.7400
     13 C13        -0.4052    2.3133   59.2488 C.2     1  ZINC000774689801    0.5200
     14 O14        -0.0959    1.1670   59.0014 O.2     1  ZINC000774689801   -0.5100
     15 S15        -0.8537    2.5452   53.0076 S.3     1  ZINC000774689801    0.3000
     16 C16        -2.5816    2.7667   52.7590 C.2     1  ZINC000774689801    0.1000
     17 C17        -3.0369    3.8147   53.5658 C.2     1  ZINC000774689801   -0.2500
     18 C18        -4.4732    4.1423   53.4861 C.2     1  ZINC000774689801    0.5700
     19 O19        -4.9437    5.0431   54.1576 O.2     1  ZINC000774689801   -0.5000
     20 N20        -5.2570    3.4209   52.6508 N.am    1  ZINC000774689801   -0.5500
     21 C21        -6.7031    3.5502   52.4012 C.3     1  ZINC000774689801    0.0900
     22 C22        -6.9632    2.8063   51.0751 C.3     1  ZINC000774689801   -0.1300
     23 C23        -5.8086    1.7816   51.0561 C.3     1  ZINC000774689801   -0.0800
     24 C24        -4.7222    2.4218   51.9042 C.2     1  ZINC000774689801    0.4200
     25 N25        -3.4533    2.1171   51.9684 N.2     1  ZINC000774689801   -0.5100
     26 H26        -2.5341    5.1618   56.2510 H       1  ZINC000774689801    0.0800
     27 H27        -1.3889    6.1682   55.3325 H       1  ZINC000774689801    0.1000
     28 H28        -3.1116    6.1460   54.8849 H       1  ZINC000774689801    0.0800
     29 H29        -1.1462    3.0974   56.7068 H       1  ZINC000774689801    0.0900
     30 H30         0.4792    2.3721   56.6895 H       1  ZINC000774689801    0.0800
     31 H31        -0.4170    5.6025   58.9623 H       1  ZINC000774689801    0.1000
     32 H32        -1.7868    4.7084   58.2224 H       1  ZINC000774689801    0.0900
     33 H33        -0.7320    4.5931   61.0636 H       1  ZINC000774689801    0.0800
     34 H34        -2.4115    4.4078   60.4763 H       1  ZINC000774689801    0.0800
     35 H35        -1.6022    2.0857   60.9047 H       1  ZINC000774689801    0.4100
     36 H36        -7.2679    3.0869   53.2102 H       1  ZINC000774689801    0.1000
     37 H37        -6.9761    4.6009   52.3036 H       1  ZINC000774689801    0.1000
     38 H38        -7.9303    2.3037   51.0932 H       1  ZINC000774689801    0.1100
     39 H39        -6.8948    3.4868   50.2264 H       1  ZINC000774689801    0.0900
     40 H40        -6.1294    0.8378   51.4970 H       1  ZINC000774689801    0.1200
     41 H41        -5.4541    1.6259   50.0371 H       1  ZINC000774689801    0.1200
@<TRIPOS>BOND
     1     1     2    1
     2     1    26    1
     3     1    27    1
     4     1    28    1
     5     2    17    1
     6     2     3    2
     7     3     4    1
     8     3    15    1
     9     4     5    2
    10     4     6    1
    11     6     7    1
    12     7     8    1
    13     7    29    1
    14     7    30    1
    15     8     9    1
    16     8    13    1
    17     8    10    1
    18    10    11    1
    19    10    31    1
    20    10    32    1
    21    11    12    1
    22    11    33    1
    23    11    34    1
    24    12    13   am
    25    12    35    1
    26    13    14    2
    27    15    16    1
    28    16    25    1
    29    16    17    2
    30    17    18    1
    31    18    19    2
    32    18    20   am
    33    20    24    1
    34    20    21    1
    35    21    22    1
    36    21    36    1
    37    21    37    1
    38    22    23    1
    39    22    38    1
    40    22    39    1
    41    23    24    1
    42    23    40    1
    43    23    41    1
    44    24    25    2
@<TRIPOS>SUBSTRUCTURE
     1 ZINC000774689801        1 TEMP              0 ****  ****    0 ROOT


##########                                Name:    ZINC001401207732
##########                DOCK_Rotatable_Bonds:                   8
##########                         Heavy_Atoms:                  23
##########                    Molecular_Weight:             337.446
##########                DOCK_Rotatable_Bonds:                   8
##########                       Formal_Charge:          -0.0199995
##########                     HBond_Acceptors:                   8
##########                        HBond_Donors:                   1
##########                         Heavy_Atoms:                  23
##########                          Grid_Score:          -27.190874
##########                     Grid_vdw_energy:          -26.049963
##########                      Grid_es_energy:           -1.140912
##########           Internal_energy_repulsive:          107.647896

@<TRIPOS>MOLECULE
ZINC001401207732
 46 47 1 0 0
SMALL
USER_CHARGES


@<TRIPOS>ATOM
      1 C1         -8.9321    3.9519   58.8447 C.3     1  ZINC001401207732   -0.0900
      2 C2         -8.6865    4.4432   60.2481 C.2     1  ZINC001401207732    0.1500
      3 C3         -8.9683    3.7014   61.3484 C.2     1  ZINC001401207732   -0.3000
      4 C4         -9.5378    2.3497   61.3577 C.2     1  ZINC001401207732    0.6100
      5 O5         -9.7955    1.7909   60.3079 O.2     1  ZINC001401207732   -0.5200
      6 N6         -9.7757    1.7267   62.5289 N.am    1  ZINC001401207732   -0.5900
      7 C7         -9.4654    2.3995   63.7927 C.3     1  ZINC001401207732    0.0700
      8 C8        -10.3445    0.3767   62.5381 C.3     1  ZINC001401207732    0.1400
      9 H9        -10.3955    0.0109   63.5636 H       1  ZINC001401207732    0.1100
     10 C10       -11.7518    0.4121   61.9388 C.3     1  ZINC001401207732   -0.1600
     11 C11        -9.4598   -0.5553   61.7076 C.3     1  ZINC001401207732    0.0500
     12 N12       -10.1668   -0.9334   60.4768 N.3     1  ZINC001401207732   -0.6800
     13 C13        -9.5366   -2.1005   59.8452 C.3     1  ZINC001401207732    0.1500
     14 C14       -10.5071   -2.7361   58.8832 C.2     1  ZINC001401207732    0.1800
     15 N15       -11.7783   -2.4436   58.7491 N.2     1  ZINC001401207732   -0.4800
     16 C16       -12.2366   -3.2570   57.7810 C.2     1  ZINC001401207732    0.1800
     17 C17       -13.6477   -3.3101   57.2546 C.3     1  ZINC001401207732   -0.0100
     18 C18       -14.6313   -3.1360   58.4135 C.3     1  ZINC001401207732   -0.1500
     19 C19       -13.8549   -2.1868   56.2367 C.3     1  ZINC001401207732   -0.1500
     20 N20       -11.2394   -3.9891   57.3832 N.2     1  ZINC001401207732   -0.3800
     21 O21       -10.2352   -3.7014   57.9999 O.3     1  ZINC001401207732    0.0900
     22 S22        -8.5347    4.6559   62.7648 S.3     1  ZINC001401207732    0.1800
     23 C23        -8.0156    5.9346   61.7559 C.2     1  ZINC001401207732    0.0100
     24 N24        -8.1820    5.6226   60.5107 N.2     1  ZINC001401207732   -0.4800
     25 H25        -9.9381    4.2320   58.5325 H       1  ZINC001401207732    0.0800
     26 H26        -8.2038    4.4015   58.1698 H       1  ZINC001401207732    0.0800
     27 H27        -8.8318    2.8669   58.8169 H       1  ZINC001401207732    0.1000
     28 H28        -8.4120    2.2543   64.0326 H       1  ZINC001401207732    0.0600
     29 H29        -9.6728    3.4654   63.6975 H       1  ZINC001401207732    0.0800
     30 H30       -10.0804    1.9794   64.5885 H       1  ZINC001401207732    0.0900
     31 H31       -12.1750   -0.5924   61.9457 H       1  ZINC001401207732    0.0700
     32 H32       -12.3821    1.0760   62.5305 H       1  ZINC001401207732    0.0700
     33 H33       -11.7009    0.7778   60.9133 H       1  ZINC001401207732    0.0600
     34 H34        -9.2324   -1.4509   62.2858 H       1  ZINC001401207732    0.0800
     35 H35        -8.5324   -0.0431   61.4513 H       1  ZINC001401207732    0.0500
     36 H36       -10.2151   -0.1567   59.8345 H       1  ZINC001401207732    0.3600
     37 H37        -9.2596   -2.8234   60.6125 H       1  ZINC001401207732    0.1100
     38 H38        -8.6444   -1.7838   59.3051 H       1  ZINC001401207732    0.0800
     39 H39       -13.8201   -4.2729   56.7734 H       1  ZINC001401207732    0.1000
     40 H40       -15.6519   -3.1744   58.0327 H       1  ZINC001401207732    0.0700
     41 H41       -14.4837   -3.9362   59.1387 H       1  ZINC001401207732    0.0600
     42 H42       -14.4591   -2.1732   58.8947 H       1  ZINC001401207732    0.0600
     43 H43       -13.1542   -2.3109   55.4111 H       1  ZINC001401207732    0.0600
     44 H44       -14.8755   -2.2252   55.8559 H       1  ZINC001401207732    0.0700
     45 H45       -13.6827   -1.2241   56.7178 H       1  ZINC001401207732    0.0600
     46 H46        -7.6106    6.8720   62.1076 H       1  ZINC001401207732    0.2000
@<TRIPOS>BOND
     1     1     2    1
     2     1    25    1
     3     1    26    1
     4     1    27    1
     5     2    24    1
     6     2     3    2
     7     3     4    1
     8     3    22    1
     9     4     5    2
    10     4     6   am
    11     6     7    1
    12     6     8    1
    13     7    28    1
    14     7    29    1
    15     7    30    1
    16     8     9    1
    17     8    10    1
    18     8    11    1
    19    10    31    1
    20    10    32    1
    21    10    33    1
    22    11    12    1
    23    11    34    1
    24    11    35    1
    25    12    13    1
    26    12    36    1
    27    13    14    1
    28    13    37    1
    29    13    38    1
    30    14    21    1
    31    14    15    2
    32    15    16    1
    33    16    17    1
    34    16    20    2
    35    17    18    1
    36    17    19    1
    37    17    39    1
    38    18    40    1
    39    18    41    1
    40    18    42    1
    41    19    43    1
    42    19    44    1
    43    19    45    1
    44    20    21    1
    45    22    23    1
    46    23    24    2
    47    23    46    1
@<TRIPOS>SUBSTRUCTURE
     1 ZINC001401207732        1 TEMP              0 ****  ****    0 ROOT


##########                                Name:    ZINC000949401225
##########                DOCK_Rotatable_Bonds:                   7
##########                         Heavy_Atoms:                  24
##########                    Molecular_Weight:             332.403
##########                DOCK_Rotatable_Bonds:                   7
##########                       Formal_Charge:                0.03
##########                     HBond_Acceptors:                   7
##########                        HBond_Donors:                   1
##########                         Heavy_Atoms:                  24
##########                          Grid_Score:          -27.180180
##########                     Grid_vdw_energy:          -22.672480
##########                      Grid_es_energy:           -4.507700
##########           Internal_energy_repulsive:           11.472659

@<TRIPOS>MOLECULE
ZINC000949401225
 48 50 1 0 0
SMALL
USER_CHARGES


@<TRIPOS>ATOM
      1 C1         -8.4479   -0.2643   63.5182 C.3     1  ZINC000949401225    0.0700
      2 N2         -9.4740    0.7701   63.3660 N.pl3   1  ZINC000949401225   -0.4500
      3 C3         -9.2599    2.1091   63.5179 C.2     1  ZINC000949401225   -0.0100
      4 C4        -10.4169    2.7612   63.3066 C.2     1  ZINC000949401225   -0.1700
      5 C5        -11.4190    1.7345   63.0005 C.2     1  ZINC000949401225   -0.2400
      6 C6        -12.8432    1.9510   62.6950 C.2     1  ZINC000949401225    0.5900
      7 O7        -13.6339    2.1569   63.5959 O.2     1  ZINC000949401225   -0.5500
      8 N8        -13.2704    1.9209   61.4172 N.am    1  ZINC000949401225   -0.7300
      9 C9        -14.6869    2.1380   61.1130 C.3     1  ZINC000949401225    0.1200
     10 C10       -14.9122    1.9997   59.6061 C.3     1  ZINC000949401225    0.1200
     11 H11       -15.9258    2.2650   59.3056 H       1  ZINC000949401225    0.1000
     12 C12       -13.8263    2.6797   58.7607 C.3     1  ZINC000949401225   -0.1500
     13 C13       -13.9950    1.4407   57.8705 C.3     1  ZINC000949401225    0.1000
     14 N14       -14.4583    0.7111   59.0617 N.am    1  ZINC000949401225   -0.6400
     15 C15       -14.4624   -0.5724   59.4731 C.2     1  ZINC000949401225    0.5500
     16 O16       -14.9374   -0.8623   60.5507 O.2     1  ZINC000949401225   -0.5200
     17 C17       -13.8769   -1.6472   58.5939 C.3     1  ZINC000949401225   -0.1400
     18 C18       -12.3501   -1.6028   58.6824 C.3     1  ZINC000949401225    0.1500
     19 H19       -11.9898   -0.5953   58.4737 H       1  ZINC000949401225    0.0900
     20 C20       -11.8823   -2.0585   60.0824 C.3     1  ZINC000949401225   -0.1200
     21 C21       -10.5742   -2.8121   59.7479 C.3     1  ZINC000949401225   -0.1600
     22 C22       -10.7551   -3.2497   58.3111 C.2     1  ZINC000949401225    0.5200
     23 O23       -10.0916   -4.0989   57.7548 O.2     1  ZINC000949401225   -0.5300
     24 N24       -11.7586   -2.5592   57.7393 N.am    1  ZINC000949401225   -0.6200
     25 C25       -12.2040   -2.7413   56.3556 C.3     1  ZINC000949401225    0.0900
     26 C26       -10.7621    0.5359   63.0505 C.2     1  ZINC000949401225    0.0800
     27 H27        -7.9636   -0.4398   62.5576 H       1  ZINC000949401225    0.0800
     28 H28        -7.7051    0.0649   64.2448 H       1  ZINC000949401225    0.0900
     29 H29        -8.9116   -1.1877   63.8655 H       1  ZINC000949401225    0.0900
     30 H30        -8.3155    2.5700   63.7672 H       1  ZINC000949401225    0.1700
     31 H31       -10.5767    3.8282   63.3533 H       1  ZINC000949401225    0.1500
     32 H32       -12.6400    1.7555   60.6988 H       1  ZINC000949401225    0.4000
     33 H33       -15.2893    1.3980   61.6399 H       1  ZINC000949401225    0.0700
     34 H34       -14.9783    3.1383   61.4336 H       1  ZINC000949401225    0.0900
     35 H35       -14.1424    3.6122   58.2933 H       1  ZINC000949401225    0.1000
     36 H36       -12.8556    2.7485   59.2516 H       1  ZINC000949401225    0.1000
     37 H37       -14.7644    1.5563   57.1070 H       1  ZINC000949401225    0.0900
     38 H38       -13.0546    1.0638   57.4683 H       1  ZINC000949401225    0.0800
     39 H39       -14.2319   -2.6224   58.9268 H       1  ZINC000949401225    0.1000
     40 H40       -14.1859   -1.4807   57.5619 H       1  ZINC000949401225    0.1000
     41 H41       -11.6849   -1.2011   60.7259 H       1  ZINC000949401225    0.1000
     42 H42       -12.6119   -2.7272   60.5389 H       1  ZINC000949401225    0.0800
     43 H43        -9.7162   -2.1458   59.8385 H       1  ZINC000949401225    0.1100
     44 H44       -10.4560   -3.6785   60.3986 H       1  ZINC000949401225    0.1000
     45 H45       -11.6579   -3.5697   55.9042 H       1  ZINC000949401225    0.0800
     46 H46       -13.2717   -2.9606   56.3435 H       1  ZINC000949401225    0.0600
     47 H47       -12.0139   -1.8294   55.7896 H       1  ZINC000949401225    0.0600
     48 H48       -11.2028   -0.4340   62.8736 H       1  ZINC000949401225    0.1800
@<TRIPOS>BOND
     1     1     2    1
     2     1    27    1
     3     1    28    1
     4     1    29    1
     5     2    26    1
     6     2     3    1
     7     3     4    2
     8     3    30    1
     9     4     5    1
    10     4    31    1
    11     5     6    1
    12     5    26    2
    13     6     7    2
    14     6     8   am
    15     8     9    1
    16     8    32    1
    17     9    10    1
    18     9    33    1
    19     9    34    1
    20    10    11    1
    21    10    14    1
    22    10    12    1
    23    12    13    1
    24    12    35    1
    25    12    36    1
    26    13    14    1
    27    13    37    1
    28    13    38    1
    29    14    15   am
    30    15    16    2
    31    15    17    1
    32    17    18    1
    33    17    39    1
    34    17    40    1
    35    18    19    1
    36    18    24    1
    37    18    20    1
    38    20    21    1
    39    20    41    1
    40    20    42    1
    41    21    22    1
    42    21    43    1
    43    21    44    1
    44    22    23    2
    45    22    24   am
    46    24    25    1
    47    25    45    1
    48    25    46    1
    49    25    47    1
    50    26    48    1
@<TRIPOS>SUBSTRUCTURE
     1 ZINC000949401225        1 TEMP              0 ****  ****    0 ROOT


##########                                Name:    ZINC000626935317
##########                DOCK_Rotatable_Bonds:                   6
##########                         Heavy_Atoms:                  25
##########                    Molecular_Weight:             366.441
##########                DOCK_Rotatable_Bonds:                   6
##########                       Formal_Charge:          -0.0200006
##########                     HBond_Acceptors:                   9
##########                        HBond_Donors:                   2
##########                         Heavy_Atoms:                  25
##########                          Grid_Score:          -27.157570
##########                     Grid_vdw_energy:          -23.702360
##########                      Grid_es_energy:           -3.455210
##########           Internal_energy_repulsive:           14.443572

@<TRIPOS>MOLECULE
ZINC000626935317
 47 49 1 0 0
SMALL
USER_CHARGES


@<TRIPOS>ATOM
      1 C1         -9.2952    4.0649   61.0129 C.3     1  ZINC000626935317    0.0900
      2 N2         -9.9905    2.8020   60.7524 N.am    1  ZINC000626935317   -0.6200
      3 C3         -9.5843    1.8825   59.8600 C.2     1  ZINC000626935317    0.5200
      4 O4         -8.6011    1.9837   59.1572 O.2     1  ZINC000626935317   -0.5200
      5 C5        -10.5316    0.7031   59.8603 C.3     1  ZINC000626935317   -0.1500
      6 C6        -11.3310    0.8591   61.1747 C.3     1  ZINC000626935317   -0.1200
      7 H7        -10.8685    0.2918   61.9823 H       1  ZINC000626935317    0.1200
      8 C8        -12.7680    0.4471   60.9840 C.2     1  ZINC000626935317    0.5300
      9 O9        -13.5713    0.6176   61.8765 O.2     1  ZINC000626935317   -0.5200
     10 N10       -13.1605   -0.1111   59.8217 N.am    1  ZINC000626935317   -0.7100
     11 C11       -14.5570   -0.5132   59.6370 C.3     1  ZINC000626935317    0.1200
     12 C12       -14.8615   -1.0540   58.2300 C.3     1  ZINC000626935317   -0.1600
     13 C13       -14.4767   -2.4430   58.7660 C.3     1  ZINC000626935317    0.1200
     14 N14       -13.0506   -2.7499   58.6307 N.am    1  ZINC000626935317   -1.1100
     15 S15       -12.4520   -3.2814   57.1810 S.o2    1  ZINC000626935317    2.6100
     16 C16       -10.6805   -3.5261   57.4853 C.3     1  ZINC000626935317   -0.6700
     17 O17       -13.0988   -4.5291   56.9710 O.2     1  ZINC000626935317   -0.9500
     18 O18       -12.6597   -2.1901   56.2949 O.2     1  ZINC000626935317   -0.9500
     19 C19       -14.8658   -1.9256   60.1610 C.3     1  ZINC000626935317   -0.1600
     20 C20       -11.2168    2.3754   61.4367 C.3     1  ZINC000626935317    0.2000
     21 H21       -12.0769    2.8968   61.0164 H       1  ZINC000626935317    0.1100
     22 C22       -11.1178    2.6429   62.9164 C.ar    1  ZINC000626935317   -0.1600
     23 C23       -10.0105    2.2178   63.6341 C.ar    1  ZINC000626935317   -0.0500
     24 C24        -9.9623    2.4865   64.9937 C.ar    1  ZINC000626935317   -0.1700
     25 C25       -11.0119    3.1641   65.5838 C.ar    1  ZINC000626935317    0.1000
     26 N26       -12.0500    3.5538   64.8698 N.ar    1  ZINC000626935317   -0.4800
     27 C27       -12.1273    3.3203   63.5743 C.ar    1  ZINC000626935317    0.1200
     28 H28        -8.5580    3.9177   61.8022 H       1  ZINC000626935317    0.0600
     29 H29        -8.7930    4.3974   60.1043 H       1  ZINC000626935317    0.0800
     30 H30       -10.0170    4.8193   61.3259 H       1  ZINC000626935317    0.0700
     31 H31       -11.1991    0.7498   58.9999 H       1  ZINC000626935317    0.1100
     32 H32        -9.9745   -0.2337   59.8616 H       1  ZINC000626935317    0.1200
     33 H33       -12.5183   -0.2464   59.1074 H       1  ZINC000626935317    0.4000
     34 H34       -15.2640    0.2432   59.9779 H       1  ZINC000626935317    0.1100
     35 H35       -15.9109   -0.9703   57.9476 H       1  ZINC000626935317    0.1100
     36 H36       -14.1844   -0.6793   57.4622 H       1  ZINC000626935317    0.0800
     37 H37       -15.1187   -3.2449   58.4016 H       1  ZINC000626935317    0.1100
     38 H38       -12.4570   -2.6419   59.3903 H       1  ZINC000626935317    0.4100
     39 H39       -10.5461   -4.2640   58.2761 H       1  ZINC000626935317    0.1300
     40 H40       -10.2005   -3.8799   56.5728 H       1  ZINC000626935317    0.1300
     41 H41       -10.2302   -2.5811   57.7897 H       1  ZINC000626935317    0.1300
     42 H42       -14.1922   -2.2547   60.9523 H       1  ZINC000626935317    0.0900
     43 H43       -15.9164   -2.0803   60.4066 H       1  ZINC000626935317    0.1100
     44 H44        -9.2049    1.6896   63.1460 H       1  ZINC000626935317    0.1400
     45 H45        -9.1150    2.1697   65.5839 H       1  ZINC000626935317    0.1400
     46 H46       -10.9821    3.3770   66.6423 H       1  ZINC000626935317    0.1600
     47 H47       -12.9934    3.6546   63.0224 H       1  ZINC000626935317    0.1500
@<TRIPOS>BOND
     1     1     2    1
     2     1    28    1
     3     1    29    1
     4     1    30    1
     5     2    20    1
     6     2     3   am
     7     3     4    2
     8     3     5    1
     9     5     6    1
    10     5    31    1
    11     5    32    1
    12     6     7    1
    13     6     8    1
    14     6    20    1
    15     8     9    2
    16     8    10   am
    17    10    11    1
    18    10    33    1
    19    11    19    1
    20    11    12    1
    21    11    34    1
    22    12    13    1
    23    12    35    1
    24    12    36    1
    25    13    14    1
    26    13    19    1
    27    13    37    1
    28    14    15   am
    29    14    38    1
    30    15    16    1
    31    15    17    2
    32    15    18    2
    33    16    39    1
    34    16    40    1
    35    16    41    1
    36    19    42    1
    37    19    43    1
    38    20    21    1
    39    20    22    1
    40    22    27   ar
    41    22    23   ar
    42    23    24   ar
    43    23    44    1
    44    24    25   ar
    45    24    45    1
    46    25    26   ar
    47    25    46    1
    48    26    27   ar
    49    27    47    1
@<TRIPOS>SUBSTRUCTURE
     1 ZINC000626935317        1 TEMP              0 ****  ****    0 ROOT


##########                                Name:    ZINC000225856071
##########                DOCK_Rotatable_Bonds:                   6
##########                         Heavy_Atoms:                  29
##########                    Molecular_Weight:             409.549
##########                DOCK_Rotatable_Bonds:                   6
##########                       Formal_Charge:         -0.00999989
##########                     HBond_Acceptors:                   5
##########                        HBond_Donors:                   1
##########                         Heavy_Atoms:                  29
##########                          Grid_Score:          -27.128531
##########                     Grid_vdw_energy:          -26.772736
##########                      Grid_es_energy:           -0.355796
##########           Internal_energy_repulsive:           33.480648

@<TRIPOS>MOLECULE
ZINC000225856071
 56 58 1 0 0
SMALL
USER_CHARGES


@<TRIPOS>ATOM
      1 C1        -13.4427   -1.0330   53.4969 C.3     1  ZINC000225856071    0.0200
      2 O2        -13.5454    0.0064   54.4721 O.3     1  ZINC000225856071   -0.3100
      3 C3        -13.4617   -0.3621   55.7776 C.ar    1  ZINC000225856071    0.1900
      4 C4        -13.3413   -1.7021   56.1149 C.ar    1  ZINC000225856071   -0.2300
      5 C5        -13.2559   -2.0740   57.4429 C.ar    1  ZINC000225856071    0.0700
      6 C6        -13.1251   -3.5297   57.8100 C.3     1  ZINC000225856071   -0.1800
      7 C7        -13.2899   -1.1119   58.4349 C.ar    1  ZINC000225856071   -0.7100
      8 S8        -13.1802   -1.5894   60.1274 S.o2    1  ZINC000225856071    2.7000
      9 O9        -14.5075   -1.8650   60.5534 O.2     1  ZINC000225856071   -0.9600
     10 O10       -12.1250   -2.5376   60.2092 O.2     1  ZINC000225856071   -0.9500
     11 N11       -12.6817   -0.2603   60.9804 N.am    1  ZINC000225856071   -1.1100
     12 C12       -11.3960    0.3695   60.6696 C.3     1  ZINC000225856071    0.2400
     13 H13       -10.9984   -0.0525   59.7466 H       1  ZINC000225856071    0.1100
     14 C14       -10.4274    0.1165   61.7959 C.ar    1  ZINC000225856071   -0.1000
     15 C15        -9.4399   -0.8408   61.6563 C.ar    1  ZINC000225856071   -0.1000
     16 C16        -8.5513   -1.0729   62.6894 C.ar    1  ZINC000225856071   -0.1200
     17 C17        -8.6499   -0.3475   63.8621 C.ar    1  ZINC000225856071   -0.1100
     18 C18        -9.6368    0.6104   64.0013 C.ar    1  ZINC000225856071   -0.1100
     19 C19       -10.5227    0.8456   62.9665 C.ar    1  ZINC000225856071   -0.1000
     20 C20       -11.5920    1.8541   60.4996 C.ar    1  ZINC000225856071   -0.0900
     21 C21       -12.6842    2.4771   61.0735 C.ar    1  ZINC000225856071   -0.1000
     22 C22       -12.8639    3.8391   60.9176 C.ar    1  ZINC000225856071   -0.1200
     23 C23       -11.9514    4.5775   60.1882 C.ar    1  ZINC000225856071   -0.0800
     24 C24       -12.1476    6.0620   60.0178 C.3     1  ZINC000225856071   -0.1200
     25 C25       -10.8581    3.9545   59.6152 C.ar    1  ZINC000225856071   -0.1200
     26 C26       -10.6764    2.5937   59.7743 C.ar    1  ZINC000225856071   -0.0600
     27 C27        -9.4848    1.9145   59.1499 C.3     1  ZINC000225856071   -0.1300
     28 C28       -13.4094    0.2248   58.1013 C.ar    1  ZINC000225856071    0.0200
     29 C29       -13.4908    0.6021   56.7750 C.ar    1  ZINC000225856071   -0.1400
     30 C30       -13.6206    2.0590   56.4121 C.3     1  ZINC000225856071   -0.1100
     31 H31       -14.2450   -1.7550   53.6494 H       1  ZINC000225856071    0.0600
     32 H32       -13.5253   -0.6038   52.4983 H       1  ZINC000225856071    0.1000
     33 H33       -12.4795   -1.5331   53.5989 H       1  ZINC000225856071    0.0600
     34 H34       -13.3146   -2.4541   55.3402 H       1  ZINC000225856071    0.1400
     35 H35       -12.0699   -3.7974   57.8640 H       1  ZINC000225856071    0.0900
     36 H36       -13.5941   -3.7037   58.7784 H       1  ZINC000225856071    0.1000
     37 H37       -13.6167   -4.1410   57.0532 H       1  ZINC000225856071    0.0800
     38 H38       -13.2409    0.1011   61.6856 H       1  ZINC000225856071    0.4200
     39 H39        -9.3629   -1.4075   60.7402 H       1  ZINC000225856071    0.1200
     40 H40        -7.7803   -1.8214   62.5806 H       1  ZINC000225856071    0.1200
     41 H41        -7.9561   -0.5294   64.6694 H       1  ZINC000225856071    0.1200
     42 H42        -9.7140    1.1769   64.9175 H       1  ZINC000225856071    0.1200
     43 H43       -11.2937    1.5940   63.0753 H       1  ZINC000225856071    0.1200
     44 H44       -13.3973    1.9000   61.6435 H       1  ZINC000225856071    0.1200
     45 H45       -13.7177    4.3257   61.3655 H       1  ZINC000225856071    0.1200
     46 H46       -11.6497    6.5900   60.8311 H       1  ZINC000225856071    0.0700
     47 H47       -11.7220    6.3778   59.0654 H       1  ZINC000225856071    0.0700
     48 H48       -13.2130    6.2918   60.0339 H       1  ZINC000225856071    0.0700
     49 H49       -10.1449    4.5317   59.0457 H       1  ZINC000225856071    0.1200
     50 H50        -8.6518    1.9235   59.8528 H       1  ZINC000225856071    0.0800
     51 H51        -9.7415    0.8842   58.9037 H       1  ZINC000225856071    0.0700
     52 H52        -9.1992    2.4448   58.2414 H       1  ZINC000225856071    0.0700
     53 H53       -13.4354    0.9746   58.8781 H       1  ZINC000225856071    0.1500
     54 H54       -12.6281    2.4915   56.2848 H       1  ZINC000225856071    0.0700
     55 H55       -14.1799    2.1531   55.4812 H       1  ZINC000225856071    0.0700
     56 H56       -14.1474    2.5861   57.2075 H       1  ZINC000225856071    0.0700
@<TRIPOS>BOND
     1     1     2    1
     2     1    31    1
     3     1    32    1
     4     1    33    1
     5     2     3    1
     6     3    29   ar
     7     3     4   ar
     8     4     5   ar
     9     4    34    1
    10     5     6    1
    11     5     7   ar
    12     6    35    1
    13     6    36    1
    14     6    37    1
    15     7     8    1
    16     7    28   ar
    17     8     9    2
    18     8    10    2
    19     8    11   am
    20    11    12    1
    21    11    38    1
    22    12    13    1
    23    12    14    1
    24    12    20    1
    25    14    19   ar
    26    14    15   ar
    27    15    16   ar
    28    15    39    1
    29    16    17   ar
    30    16    40    1
    31    17    18   ar
    32    17    41    1
    33    18    19   ar
    34    18    42    1
    35    19    43    1
    36    20    26   ar
    37    20    21   ar
    38    21    22   ar
    39    21    44    1
    40    22    23   ar
    41    22    45    1
    42    23    24    1
    43    23    25   ar
    44    24    46    1
    45    24    47    1
    46    24    48    1
    47    25    26   ar
    48    25    49    1
    49    26    27    1
    50    27    50    1
    51    27    51    1
    52    27    52    1
    53    28    29   ar
    54    28    53    1
    55    29    30    1
    56    30    54    1
    57    30    55    1
    58    30    56    1
@<TRIPOS>SUBSTRUCTURE
     1 ZINC000225856071        1 TEMP              0 ****  ****    0 ROOT


##########                                Name:    ZINC000279974681
##########                DOCK_Rotatable_Bonds:                   4
##########                         Heavy_Atoms:                  23
##########                    Molecular_Weight:              338.79
##########                DOCK_Rotatable_Bonds:                   4
##########                       Formal_Charge:           0.0100008
##########                     HBond_Acceptors:                   7
##########                        HBond_Donors:                   1
##########                         Heavy_Atoms:                  23
##########                          Grid_Score:          -27.049391
##########                     Grid_vdw_energy:          -26.815845
##########                      Grid_es_energy:           -0.233545
##########           Internal_energy_repulsive:           21.957405

@<TRIPOS>MOLECULE
ZINC000279974681
 42 45 1 0 0
SMALL
USER_CHARGES


@<TRIPOS>ATOM
      1 C1        -15.8827   -0.7373   60.2594 C.3     1  ZINC000279974681   -0.1400
      2 C2        -14.5357   -0.0922   59.9269 C.3     1  ZINC000279974681    0.0700
      3 H3        -14.4558    0.0487   58.8490 H       1  ZINC000279974681    0.0600
      4 C4        -13.3997   -1.0010   60.4102 C.3     1  ZINC000279974681    0.1000
      5 N5        -12.1277   -0.2787   60.2502 N.am    1  ZINC000279974681   -0.6300
      6 C6        -11.0806   -0.8484   59.6212 C.2     1  ZINC000279974681    0.7100
      7 O7        -10.0377   -0.2353   59.4991 O.2     1  ZINC000279974681   -0.5600
      8 N8        -11.1895   -2.0979   59.1277 N.am    1  ZINC000279974681   -0.6700
      9 C9        -10.1003   -2.6905   58.4735 C.ar    1  ZINC000279974681    0.2000
     10 C10        -8.8555   -2.7207   59.0859 C.ar    1  ZINC000279974681   -0.1200
     11 C11        -7.7798   -3.3067   58.4394 C.ar    1  ZINC000279974681    0.0700
     12 C12        -7.9496   -3.8648   57.1749 C.ar    1  ZINC000279974681    0.0200
     13 C13        -9.1938   -3.8325   56.5659 C.ar    1  ZINC000279974681   -0.0700
     14 C14       -10.2685   -3.2527   57.2142 C.ar    1  ZINC000279974681   -0.0700
     15 Cl15      -11.8257   -3.2139   56.4479 Cl      1  ZINC000279974681   -0.0500
     16 O16        -6.7519   -4.3728   56.7582 O.3     1  ZINC000279974681   -0.3000
     17 C17        -5.7596   -3.7587   57.6015 C.3     1  ZINC000279974681    0.2100
     18 O18        -6.4767   -3.4649   58.8150 O.3     1  ZINC000279974681   -0.3000
     19 C19       -12.0327    1.0843   60.7967 C.3     1  ZINC000279974681    0.0800
     20 C20       -13.2354    1.8914   60.2946 C.3     1  ZINC000279974681    0.1100
     21 H21       -13.1501    2.0403   59.2182 H       1  ZINC000279974681    0.0700
     22 C22       -13.2684    3.2500   60.9975 C.3     1  ZINC000279974681   -0.1600
     23 C23       -12.2900    3.4717   62.1527 C.3     1  ZINC000279974681   -0.1700
     24 C24       -12.0610    4.1711   60.8113 C.3     1  ZINC000279974681   -0.1600
     25 O25       -14.4381    1.1743   60.5827 O.3     1  ZINC000279974681   -0.3600
     26 H26       -16.6900   -0.0899   59.9171 H       1  ZINC000279974681    0.0700
     27 H27       -15.9557   -1.7037   59.7605 H       1  ZINC000279974681    0.0800
     28 H28       -15.9619   -0.8780   61.3374 H       1  ZINC000279974681    0.0700
     29 H29       -13.5505   -1.2503   61.4604 H       1  ZINC000279974681    0.0800
     30 H30       -13.3811   -1.9136   59.8145 H       1  ZINC000279974681    0.1100
     31 H31       -12.0215   -2.5870   59.2252 H       1  ZINC000279974681    0.4100
     32 H32        -8.7255   -2.2871   60.0665 H       1  ZINC000279974681    0.1800
     33 H33        -9.3253   -4.2651   55.5851 H       1  ZINC000279974681    0.1500
     34 H34        -4.9419   -4.4521   57.7980 H       1  ZINC000279974681    0.1400
     35 H35        -5.3848   -2.8418   57.1466 H       1  ZINC000279974681    0.0900
     36 H36       -12.0459    1.0448   61.8859 H       1  ZINC000279974681    0.0900
     37 H37       -11.1088    1.5524   60.4570 H       1  ZINC000279974681    0.0900
     38 H38       -14.2506    3.7167   61.0727 H       1  ZINC000279974681    0.1100
     39 H39       -12.6284    4.0843   62.9883 H       1  ZINC000279974681    0.1000
     40 H40       -11.6228    2.6497   62.4120 H       1  ZINC000279974681    0.1000
     41 H41       -11.2432    3.8092   60.1881 H       1  ZINC000279974681    0.1000
     42 H42       -12.2488    5.2438   60.7644 H       1  ZINC000279974681    0.1000
@<TRIPOS>BOND
     1     1     2    1
     2     1    26    1
     3     1    27    1
     4     1    28    1
     5     2     3    1
     6     2    25    1
     7     2     4    1
     8     4     5    1
     9     4    29    1
    10     4    30    1
    11     5     6   am
    12     5    19    1
    13     6     7    2
    14     6     8   am
    15     8     9    1
    16     8    31    1
    17     9    14   ar
    18     9    10   ar
    19    10    11   ar
    20    10    32    1
    21    11    18    1
    22    11    12   ar
    23    12    13   ar
    24    12    16    1
    25    13    14   ar
    26    13    33    1
    27    14    15    1
    28    16    17    1
    29    17    18    1
    30    17    34    1
    31    17    35    1
    32    19    20    1
    33    19    36    1
    34    19    37    1
    35    20    21    1
    36    20    22    1
    37    20    25    1
    38    22    24    1
    39    22    23    1
    40    22    38    1
    41    23    24    1
    42    23    39    1
    43    23    40    1
    44    24    41    1
    45    24    42    1
@<TRIPOS>SUBSTRUCTURE
     1 ZINC000279974681        1 TEMP              0 ****  ****    0 ROOT


##########                                Name:    ZINC000487792031
##########                DOCK_Rotatable_Bonds:                  12
##########                         Heavy_Atoms:                  29
##########                    Molecular_Weight:             414.569
##########                DOCK_Rotatable_Bonds:                  12
##########                       Formal_Charge:          -0.0100001
##########                     HBond_Acceptors:                   6
##########                        HBond_Donors:                   1
##########                         Heavy_Atoms:                  29
##########                          Grid_Score:          -27.026182
##########                     Grid_vdw_energy:          -26.950109
##########                      Grid_es_energy:           -0.076073
##########           Internal_energy_repulsive:           52.948627

@<TRIPOS>MOLECULE
ZINC000487792031
 59 60 1 0 0
SMALL
USER_CHARGES


@<TRIPOS>ATOM
      1 C1        -16.0391   -1.3909   59.3541 C.2     1  ZINC000487792031   -0.1900
      2 C2        -14.7746   -1.6589   59.1407 C.2     1  ZINC000487792031   -0.1500
      3 C3        -14.3704   -3.0079   58.6042 C.3     1  ZINC000487792031   -0.0900
      4 C4        -14.3552   -2.9650   57.0750 C.3     1  ZINC000487792031   -0.0900
      5 C5        -13.2248   -2.0489   56.6017 C.3     1  ZINC000487792031   -0.0700
      6 H6        -12.8468   -2.4039   55.6429 H       1  ZINC000487792031    0.1100
      7 C7        -13.7483   -0.6443   56.4463 C.2     1  ZINC000487792031    0.5200
      8 O8        -14.8645   -0.3671   56.8312 O.2     1  ZINC000487792031   -0.5300
      9 N9        -12.9761    0.3039   55.8796 N.am    1  ZINC000487792031   -0.7200
     10 C10       -13.4856    1.6688   55.7269 C.3     1  ZINC000487792031    0.1500
     11 C11       -12.5085    2.4822   54.9177 C.ar    1  ZINC000487792031   -0.0500
     12 C12       -11.7523    3.4639   55.5305 C.ar    1  ZINC000487792031   -0.1200
     13 C13       -10.8560    4.2100   54.7882 C.ar    1  ZINC000487792031   -0.0200
     14 C14       -10.7156    3.9741   53.4334 C.ar    1  ZINC000487792031   -0.6700
     15 S15        -9.5736    4.9255   52.4872 S.o2    1  ZINC000487792031    2.6900
     16 O16       -10.0511    4.9108   51.1489 O.2     1  ZINC000487792031   -0.9500
     17 O17        -9.3462    6.1227   53.2182 O.2     1  ZINC000487792031   -0.9500
     18 N18        -8.1370    4.1018   52.4802 N.am    1  ZINC000487792031   -1.0000
     19 C19        -7.4515    3.8138   53.7425 C.3     1  ZINC000487792031    0.1200
     20 C20        -6.1484    4.6127   53.8089 C.3     1  ZINC000487792031   -0.1800
     21 C21        -7.5516    3.6612   51.2115 C.3     1  ZINC000487792031    0.1100
     22 C22        -7.2120    2.1718   51.2966 C.3     1  ZINC000487792031   -0.1800
     23 C23       -11.4709    2.9916   52.8209 C.ar    1  ZINC000487792031   -0.0200
     24 C24       -12.3644    2.2428   53.5639 C.ar    1  ZINC000487792031   -0.1200
     25 C25       -12.1107   -2.0603   57.6164 C.ar    1  ZINC000487792031   -0.0800
     26 C26       -11.9774   -1.0126   58.5084 C.ar    1  ZINC000487792031   -0.1100
     27 C27       -10.9554   -1.0232   59.4392 C.ar    1  ZINC000487792031   -0.1100
     28 C28       -10.0671   -2.0816   59.4783 C.ar    1  ZINC000487792031   -0.1200
     29 C29       -10.2010   -3.1297   58.5870 C.ar    1  ZINC000487792031   -0.1200
     30 C30       -11.2255   -3.1212   57.6590 C.ar    1  ZINC000487792031   -0.1100
     31 H31       -16.3287   -0.4241   59.7385 H       1  ZINC000487792031    0.1000
     32 H32       -16.7921   -2.1352   59.1415 H       1  ZINC000487792031    0.1000
     33 H33       -14.0218   -0.9130   59.3492 H       1  ZINC000487792031    0.1100
     34 H34       -13.3756   -3.2614   58.9706 H       1  ZINC000487792031    0.0700
     35 H35       -15.0837   -3.7609   58.9395 H       1  ZINC000487792031    0.0700
     36 H36       -14.1958   -3.9702   56.6848 H       1  ZINC000487792031    0.0800
     37 H37       -15.3092   -2.5817   56.7128 H       1  ZINC000487792031    0.0700
     38 H38       -12.0829    0.0825   55.5728 H       1  ZINC000487792031    0.4000
     39 H39       -14.4478    1.6424   55.2152 H       1  ZINC000487792031    0.0800
     40 H40       -13.6095    2.1225   56.7102 H       1  ZINC000487792031    0.0800
     41 H41       -11.8619    3.6481   56.5890 H       1  ZINC000487792031    0.1400
     42 H42       -10.2656    4.9773   55.2668 H       1  ZINC000487792031    0.1400
     43 H43        -8.0934    4.0957   54.5771 H       1  ZINC000487792031    0.0800
     44 H44        -7.2280    2.7486   53.7997 H       1  ZINC000487792031    0.0800
     45 H45        -5.5064    4.3309   52.9744 H       1  ZINC000487792031    0.0600
     46 H46        -6.3719    5.6780   53.7518 H       1  ZINC000487792031    0.0600
     47 H47        -5.6383    4.3985   54.7481 H       1  ZINC000487792031    0.0700
     48 H48        -8.2663    3.8254   50.4051 H       1  ZINC000487792031    0.0900
     49 H49        -6.6433    4.2302   51.0134 H       1  ZINC000487792031    0.0900
     50 H50        -6.4973    2.0076   52.1030 H       1  ZINC000487792031    0.0600
     51 H51        -8.1203    1.6028   51.4947 H       1  ZINC000487792031    0.0600
     52 H52        -6.7765    1.8440   50.3527 H       1  ZINC000487792031    0.0700
     53 H53       -11.3610    2.8070   51.7625 H       1  ZINC000487792031    0.1400
     54 H54       -12.9545    1.4752   53.0854 H       1  ZINC000487792031    0.1400
     55 H55       -12.6715   -0.1858   58.4777 H       1  ZINC000487792031    0.1200
     56 H56       -10.8509   -0.2044   60.1355 H       1  ZINC000487792031    0.1200
     57 H57        -9.2683   -2.0895   60.2051 H       1  ZINC000487792031    0.1200
     58 H58        -9.5067   -3.9564   58.6173 H       1  ZINC000487792031    0.1200
     59 H59       -11.3301   -3.9401   56.9626 H       1  ZINC000487792031    0.1200
@<TRIPOS>BOND
     1     1     2    2
     2     1    31    1
     3     1    32    1
     4     2     3    1
     5     2    33    1
     6     3     4    1
     7     3    34    1
     8     3    35    1
     9     4     5    1
    10     4    36    1
    11     4    37    1
    12     5     6    1
    13     5     7    1
    14     5    25    1
    15     7     8    2
    16     7     9   am
    17     9    10    1
    18     9    38    1
    19    10    11    1
    20    10    39    1
    21    10    40    1
    22    11    24   ar
    23    11    12   ar
    24    12    13   ar
    25    12    41    1
    26    13    14   ar
    27    13    42    1
    28    14    15    1
    29    14    23   ar
    30    15    16    2
    31    15    17    2
    32    15    18   am
    33    18    19    1
    34    18    21    1
    35    19    20    1
    36    19    43    1
    37    19    44    1
    38    20    45    1
    39    20    46    1
    40    20    47    1
    41    21    22    1
    42    21    48    1
    43    21    49    1
    44    22    50    1
    45    22    51    1
    46    22    52    1
    47    23    24   ar
    48    23    53    1
    49    24    54    1
    50    25    30   ar
    51    25    26   ar
    52    26    27   ar
    53    26    55    1
    54    27    28   ar
    55    27    56    1
    56    28    29   ar
    57    28    57    1
    58    29    30   ar
    59    29    58    1
    60    30    59    1
@<TRIPOS>SUBSTRUCTURE
     1 ZINC000487792031        1 TEMP              0 ****  ****    0 ROOT


##########                                Name:    ZINC001098311495
##########                DOCK_Rotatable_Bonds:                   8
##########                         Heavy_Atoms:                  24
##########                    Molecular_Weight:             328.454
##########                DOCK_Rotatable_Bonds:                   8
##########                       Formal_Charge:          0.00999987
##########                     HBond_Acceptors:                   4
##########                        HBond_Donors:                   1
##########                         Heavy_Atoms:                  24
##########                          Grid_Score:          -27.018814
##########                     Grid_vdw_energy:          -25.692060
##########                      Grid_es_energy:           -1.326754
##########           Internal_energy_repulsive:           39.979633

@<TRIPOS>MOLECULE
ZINC001098311495
 52 54 1 0 0
SMALL
USER_CHARGES


@<TRIPOS>ATOM
      1 C1        -13.4365   -3.2275   57.9054 C.3     1  ZINC001098311495   -0.1500
      2 C2        -12.7931   -1.9869   57.2827 C.3     1  ZINC001098311495    0.0500
      3 O3        -12.0973   -1.2534   58.2926 O.3     1  ZINC001098311495   -0.2800
      4 C4        -10.9382   -1.7869   58.7529 C.ar    1  ZINC001098311495    0.1900
      5 C5        -10.3583   -2.8629   58.0981 C.ar    1  ZINC001098311495   -0.2200
      6 C6         -9.1817   -3.4092   58.5717 C.ar    1  ZINC001098311495   -0.0500
      7 C7         -8.5689   -2.8844   59.6976 C.ar    1  ZINC001098311495   -0.1700
      8 C8         -9.1282   -1.8113   60.3574 C.ar    1  ZINC001098311495   -0.0500
      9 C9        -10.3181   -1.2493   59.8893 C.ar    1  ZINC001098311495   -0.1800
     10 C10       -10.9223   -0.1004   60.5907 C.2     1  ZINC001098311495    0.5600
     11 O11       -12.1035    0.1483   60.4446 O.2     1  ZINC001098311495   -0.5200
     12 N12       -10.1648    0.6735   61.3930 N.am    1  ZINC001098311495   -0.7200
     13 C13       -10.7651    1.8133   62.0908 C.3     1  ZINC001098311495    0.1600
     14 H14       -11.7718    2.0027   61.7184 H       1  ZINC001098311495    0.1000
     15 C15        -9.8781    3.0734   61.9396 C.3     1  ZINC001098311495   -0.1200
     16 C16        -9.4824    3.4185   63.4071 C.3     1  ZINC001098311495    0.0500
     17 H17        -8.5916    4.0362   63.5214 H       1  ZINC001098311495    0.1100
     18 C18       -10.7769    3.9743   64.0737 C.3     1  ZINC001098311495   -0.1500
     19 C19       -11.6683    2.7187   64.2356 C.3     1  ZINC001098311495   -0.1500
     20 C20       -10.7867    1.5653   63.6292 C.3     1  ZINC001098311495    0.0400
     21 H21       -11.0480    0.5567   63.9496 H       1  ZINC001098311495    0.1200
     22 N22        -9.4117    2.0431   64.0174 N.3     1  ZINC001098311495   -0.4900
     23 C23        -9.2746    2.1216   65.4779 C.3     1  ZINC001098311495    0.0600
     24 C24        -7.8132    2.1603   65.8439 C.2     1  ZINC001098311495   -0.1600
     25 C25        -7.1572    1.0434   66.0399 C.2     1  ZINC001098311495   -0.1200
     26 C26        -7.8641   -0.2801   65.8994 C.3     1  ZINC001098311495   -0.1200
     27 C27        -5.6959    1.0821   66.4059 C.3     1  ZINC001098311495   -0.1200
     28 H28       -12.6622   -3.8572   58.3435 H       1  ZINC001098311495    0.0700
     29 H29       -14.1386   -2.9220   58.6813 H       1  ZINC001098311495    0.0700
     30 H30       -13.9672   -3.7870   57.1351 H       1  ZINC001098311495    0.0800
     31 H31       -13.5674   -1.3572   56.8446 H       1  ZINC001098311495    0.0600
     32 H32       -12.0911   -2.2924   56.5068 H       1  ZINC001098311495    0.0600
     33 H33       -10.8299   -3.2773   57.2194 H       1  ZINC001098311495    0.1300
     34 H34        -8.7364   -4.2501   58.0611 H       1  ZINC001098311495    0.1300
     35 H35        -7.6486   -3.3181   60.0601 H       1  ZINC001098311495    0.1300
     36 H36        -8.6471   -1.4055   61.2351 H       1  ZINC001098311495    0.1300
     37 H37        -9.2222    0.4758   61.5086 H       1  ZINC001098311495    0.4000
     38 H38       -10.4449    3.8903   61.4929 H       1  ZINC001098311495    0.0800
     39 H39        -8.9920    2.8500   61.3457 H       1  ZINC001098311495    0.0800
     40 H40       -10.5503    4.4120   65.0459 H       1  ZINC001098311495    0.0700
     41 H41       -11.2587    4.7060   63.4252 H       1  ZINC001098311495    0.0800
     42 H42       -11.8836    2.5341   65.2881 H       1  ZINC001098311495    0.0700
     43 H43       -12.5921    2.8280   63.6674 H       1  ZINC001098311495    0.0800
     44 H44        -9.7403    1.2481   65.9341 H       1  ZINC001098311495    0.0500
     45 H45        -9.7641    3.0254   65.8407 H       1  ZINC001098311495    0.0800
     46 H46        -7.3066    3.1088   65.9446 H       1  ZINC001098311495    0.1100
     47 H47        -8.2847   -0.5714   66.8618 H       1  ZINC001098311495    0.0700
     48 H48        -7.1538   -1.0381   65.5689 H       1  ZINC001098311495    0.0600
     49 H49        -8.6648   -0.1882   65.1657 H       1  ZINC001098311495    0.0600
     50 H50        -5.0959    1.1534   65.4987 H       1  ZINC001098311495    0.0700
     51 H51        -5.5025    1.9485   67.0384 H       1  ZINC001098311495    0.0600
     52 H52        -5.4322    0.1723   66.9453 H       1  ZINC001098311495    0.0600
@<TRIPOS>BOND
     1     1     2    1
     2     1    28    1
     3     1    29    1
     4     1    30    1
     5     2     3    1
     6     2    31    1
     7     2    32    1
     8     3     4    1
     9     4     9   ar
    10     4     5   ar
    11     5     6   ar
    12     5    33    1
    13     6     7   ar
    14     6    34    1
    15     7     8   ar
    16     7    35    1
    17     8     9   ar
    18     8    36    1
    19     9    10    1
    20    10    11    2
    21    10    12   am
    22    12    13    1
    23    12    37    1
    24    13    14    1
    25    13    20    1
    26    13    15    1
    27    15    16    1
    28    15    38    1
    29    15    39    1
    30    16    17    1
    31    16    22    1
    32    16    18    1
    33    18    19    1
    34    18    40    1
    35    18    41    1
    36    19    20    1
    37    19    42    1
    38    19    43    1
    39    20    21    1
    40    20    22    1
    41    22    23    1
    42    23    24    1
    43    23    44    1
    44    23    45    1
    45    24    25    2
    46    24    46    1
    47    25    26    1
    48    25    27    1
    49    26    47    1
    50    26    48    1
    51    26    49    1
    52    27    50    1
    53    27    51    1
    54    27    52    1
@<TRIPOS>SUBSTRUCTURE
     1 ZINC001098311495        1 TEMP              0 ****  ****    0 ROOT


##########                                Name:    ZINC000191003171
##########                DOCK_Rotatable_Bonds:                   6
##########                         Heavy_Atoms:                  26
##########                    Molecular_Weight:             389.414
##########                DOCK_Rotatable_Bonds:                   6
##########                       Formal_Charge:          -0.0200002
##########                     HBond_Acceptors:                   8
##########                        HBond_Donors:                   1
##########                         Heavy_Atoms:                  26
##########                          Grid_Score:          -27.007858
##########                     Grid_vdw_energy:          -27.958260
##########                      Grid_es_energy:            0.950401
##########           Internal_energy_repulsive:           16.454348

@<TRIPOS>MOLECULE
ZINC000191003171
 45 46 1 0 0
SMALL
USER_CHARGES


@<TRIPOS>ATOM
      1 C1         -9.8999   -2.9060   60.2537 C.3     1  ZINC000191003171   -0.1200
      2 C2         -9.6989   -3.2843   58.8088 C.ar    1  ZINC000191003171   -0.0800
      3 C3         -8.4344   -3.5944   58.3452 C.ar    1  ZINC000191003171   -0.0700
      4 C4         -8.2500   -3.9414   57.0195 C.ar    1  ZINC000191003171   -0.1800
      5 C5         -6.8712   -4.2791   56.5139 C.3     1  ZINC000191003171    0.5100
      6 F6         -5.9156   -3.8399   57.4364 F       1  ZINC000191003171   -0.1800
      7 F7         -6.7604   -5.6642   56.3513 F       1  ZINC000191003171   -0.1800
      8 F8         -6.6576   -3.6467   55.2843 F       1  ZINC000191003171   -0.1800
      9 C9         -9.3304   -3.9791   56.1583 C.ar    1  ZINC000191003171   -0.0800
     10 C10       -10.5954   -3.6693   56.6222 C.ar    1  ZINC000191003171   -0.1000
     11 C11       -10.7804   -3.3266   57.9484 C.ar    1  ZINC000191003171   -0.0500
     12 C12       -12.1593   -2.9889   58.4541 C.3     1  ZINC000191003171    0.0900
     13 N13       -12.3101   -1.5295   58.5277 N.3     1  ZINC000191003171   -0.6800
     14 C14       -13.1358   -1.1430   59.6796 C.3     1  ZINC000191003171    0.1200
     15 H15       -13.1849   -1.9717   60.3859 H       1  ZINC000191003171    0.0600
     16 C16       -14.5473   -0.7960   59.2017 C.3     1  ZINC000191003171   -0.1400
     17 C17       -12.5249    0.0574   60.3553 C.ar    1  ZINC000191003171   -0.0100
     18 C18       -12.7318    0.2701   61.7054 C.ar    1  ZINC000191003171   -0.1300
     19 C19       -12.1719    1.3710   62.3267 C.ar    1  ZINC000191003171    0.0100
     20 C20       -11.4049    2.2603   61.5985 C.ar    1  ZINC000191003171   -0.7000
     21 S21       -10.6916    3.6633   62.3907 S.o2    1  ZINC000191003171    2.5000
     22 C22        -8.9100    3.4934   62.0942 C.3     1  ZINC000191003171   -0.6500
     23 O23       -11.2129    4.7735   61.6732 O.2     1  ZINC000191003171   -0.9300
     24 O24       -10.9880    3.4765   63.7678 O.2     1  ZINC000191003171   -0.9300
     25 C25       -11.1966    2.0481   60.2460 C.ar    1  ZINC000191003171    0.1900
     26 F26       -10.4468    2.9168   59.5330 F       1  ZINC000191003171   -0.1200
     27 C27       -11.7533    0.9425   59.6261 C.ar    1  ZINC000191003171   -0.1700
     28 H28       -10.0990   -3.8032   60.8398 H       1  ZINC000191003171    0.0800
     29 H29        -9.0008   -2.4183   60.6301 H       1  ZINC000191003171    0.0800
     30 H30       -10.7455   -2.2231   60.3362 H       1  ZINC000191003171    0.0600
     31 H31        -7.5903   -3.5654   59.0182 H       1  ZINC000191003171    0.1400
     32 H32        -9.1864   -4.2501   55.1229 H       1  ZINC000191003171    0.1400
     33 H33       -11.4395   -3.6984   55.9492 H       1  ZINC000191003171    0.1400
     34 H34       -12.9061   -3.3975   57.7734 H       1  ZINC000191003171    0.0900
     35 H35       -12.2979   -3.4190   59.4460 H       1  ZINC000191003171    0.0500
     36 H36       -11.4102   -1.0741   58.5588 H       1  ZINC000191003171    0.3500
     37 H37       -15.1600   -0.5092   60.0564 H       1  ZINC000191003171    0.0600
     38 H38       -14.4982    0.0328   58.4954 H       1  ZINC000191003171    0.0700
     39 H39       -14.9891   -1.6643   58.7130 H       1  ZINC000191003171    0.0600
     40 H40       -13.3314   -0.4242   62.2752 H       1  ZINC000191003171    0.1500
     41 H41       -12.3344    1.5363   63.3815 H       1  ZINC000191003171    0.1600
     42 H42        -8.7189    3.4911   61.0211 H       1  ZINC000191003171    0.1300
     43 H43        -8.3837    4.3292   62.5552 H       1  ZINC000191003171    0.1400
     44 H44        -8.5571    2.5578   62.5282 H       1  ZINC000191003171    0.1300
     45 H45       -11.5912    0.7758   58.5714 H       1  ZINC000191003171    0.1500
@<TRIPOS>BOND
     1     1     2    1
     2     1    28    1
     3     1    29    1
     4     1    30    1
     5     2    11   ar
     6     2     3   ar
     7     3     4   ar
     8     3    31    1
     9     4     5    1
    10     4     9   ar
    11     5     6    1
    12     5     7    1
    13     5     8    1
    14     9    10   ar
    15     9    32    1
    16    10    11   ar
    17    10    33    1
    18    11    12    1
    19    12    13    1
    20    12    34    1
    21    12    35    1
    22    13    14    1
    23    13    36    1
    24    14    15    1
    25    14    16    1
    26    14    17    1
    27    16    37    1
    28    16    38    1
    29    16    39    1
    30    17    27   ar
    31    17    18   ar
    32    18    19   ar
    33    18    40    1
    34    19    20   ar
    35    19    41    1
    36    20    21    1
    37    20    25   ar
    38    21    22    1
    39    21    23    2
    40    21    24    2
    41    22    42    1
    42    22    43    1
    43    22    44    1
    44    25    26    1
    45    25    27   ar
    46    27    45    1
@<TRIPOS>SUBSTRUCTURE
     1 ZINC000191003171        1 TEMP              0 ****  ****    0 ROOT


##########                                Name:    ZINC000011972961
##########                DOCK_Rotatable_Bonds:                   6
##########                         Heavy_Atoms:                  28
##########                    Molecular_Weight:             397.501
##########                DOCK_Rotatable_Bonds:                   6
##########                       Formal_Charge:                   0
##########                     HBond_Acceptors:                   8
##########                        HBond_Donors:                   1
##########                         Heavy_Atoms:                  28
##########                          Grid_Score:          -27.003101
##########                     Grid_vdw_energy:          -27.003101
##########                      Grid_es_energy:            0.000000
##########           Internal_energy_repulsive:           20.963697

@<TRIPOS>MOLECULE
ZINC000011972961
 51 54 1 0 0
SMALL
USER_CHARGES


@<TRIPOS>ATOM
      1 C1        -10.0039   -0.5687   60.1039 C.3        )      0.0000
      2 C2        -11.4770   -0.2643   60.0121 C.2        )      0.0000
      3 C3        -11.9870    0.9165   60.3844 C.2        )      0.0000
      4 C4        -11.1998    2.0361   60.9154 C.2        )      0.0000
      5 O5        -10.6538    2.8115   60.1530 O.2        )      0.0000
      6 N6        -11.0820    2.2052   62.2472 N.am       )      0.0000
      7 C7        -11.7395    1.2717   63.1652 C.3        )      0.0000
      8 C8        -10.2965    3.3225   62.7772 C.3        )      0.0000
      9 H9         -9.6405    3.7262   62.0059 H          )      0.0000
     10 C10       -11.2299    4.4282   63.3276 C.3        )      0.0000
     11 C11       -11.2410    4.1174   64.8461 C.3        )      0.0000
     12 O12        -9.8875    3.6915   65.1127 O.3        )      0.0000
     13 C13        -9.4762    2.8724   64.0015 C.3        )      0.0000
     14 S14       -13.7264    0.9414   60.1496 S.3        )      0.0000
     15 C15       -13.7162   -0.7051   59.5321 C.ar       )      0.0000
     16 N16       -14.7073   -1.4913   59.0969 N.ar       )      0.0000
     17 C17       -14.4683   -2.7108   58.6716 C.ar       )      0.0000
     18 N18       -13.2513   -3.2227   58.6501 N.ar       )      0.0000
     19 C19       -12.2036   -2.5241   59.0602 C.ar       )      0.0000
     20 N20       -10.9385   -3.0750   59.0307 N.pl3      )      0.0000
     21 C21       -10.4668   -3.7624   57.8261 C.3        )      0.0000
     22 C22        -8.9600   -3.7601   57.8040 C.ar       )      0.0000
     23 N23        -8.3253   -3.7632   56.6482 N.ar       )      0.0000
     24 C24        -7.0081   -3.7609   56.5804 C.ar       )      0.0000
     25 C25        -6.3318   -3.7647   55.2337 C.3        )      0.0000
     26 C26        -6.2412   -3.7547   57.7298 C.ar       )      0.0000
     27 C27        -6.8734   -3.7513   58.9640 C.ar       )      0.0000
     28 C28        -8.2593   -3.7490   58.9954 C.ar       )      0.0000
     29 C29       -12.4024   -1.1940   59.5268 C.ar       )      0.0000
     30 H30        -9.5863   -0.6491   59.1003 H          )      0.0000
     31 H31        -9.5001    0.2329   60.6441 H          )      0.0000
     32 H32        -9.8598   -1.5104   60.6338 H          )      0.0000
     33 H33       -11.2903    0.2839   63.0622 H          )      0.0000
     34 H34       -11.6159    1.6221   64.1899 H          )      0.0000
     35 H35       -12.8015    1.2146   62.9263 H          )      0.0000
     36 H36       -10.8154    5.4180   63.1362 H          )      0.0000
     37 H37       -12.2306    4.3385   62.9048 H          )      0.0000
     38 H38       -11.4816    5.0127   65.4193 H          )      0.0000
     39 H39       -11.9462    3.3167   65.0688 H          )      0.0000
     40 H40        -9.6799    1.8238   64.2186 H          )      0.0000
     41 H41        -8.4123    3.0135   63.8108 H          )      0.0000
     42 H42       -15.2949   -3.3152   58.3285 H          )      0.0000
     43 H43       -10.3617   -3.0069   59.8076 H          )      0.0000
     44 H44       -10.8286   -4.7906   57.8293 H          )      0.0000
     45 H45       -10.8439   -3.2473   56.9426 H          )      0.0000
     46 H46        -6.1706   -2.7380   54.9052 H          )      0.0000
     47 H47        -5.3724   -4.2764   55.3104 H          )      0.0000
     48 H48        -6.9630   -4.2824   54.5115 H          )      0.0000
     49 H49        -5.1629   -3.7528   57.6677 H          )      0.0000
     50 H50        -6.2997   -3.7465   59.8791 H          )      0.0000
     51 H51        -8.7849   -3.7459   59.9389 H          )      0.0000
@<TRIPOS>BOND
     1     1     2    1
     2     1    30    1
     3     1    31    1
     4     1    32    1
     5     2    29    1
     6     2     3    2
     7     3     4    1
     8     3    14    1
     9     4     5    2
    10     4     6   am
    11     6     7    1
    12     6     8    1
    13     7    33    1
    14     7    34    1
    15     7    35    1
    16     8     9    1
    17     8    13    1
    18     8    10    1
    19    10    11    1
    20    10    36    1
    21    10    37    1
    22    11    12    1
    23    11    38    1
    24    11    39    1
    25    12    13    1
    26    13    40    1
    27    13    41    1
    28    14    15    1
    29    15    29   ar
    30    15    16   ar
    31    16    17   ar
    32    17    18   ar
    33    17    42    1
    34    18    19   ar
    35    19    20    1
    36    19    29   ar
    37    20    21    1
    38    20    43    1
    39    21    22    1
    40    21    44    1
    41    21    45    1
    42    22    28   ar
    43    22    23   ar
    44    23    24   ar
    45    24    25    1
    46    24    26   ar
    47    25    46    1
    48    25    47    1
    49    25    48    1
    50    26    27   ar
    51    26    49    1
    52    27    28   ar
    53    27    50    1
    54    28    51    1
@<TRIPOS>SUBSTRUCTURE
     1 )        1 TEMP              0 ****  ****    0 ROOT


##########                                Name:     oleObject70.pdb
##########                DOCK_Rotatable_Bonds:                   9
##########                         Heavy_Atoms:                  35
##########                    Molecular_Weight:             504.458
##########                DOCK_Rotatable_Bonds:                   9
##########                       Formal_Charge:          0.00010002
##########                     HBond_Acceptors:                   6
##########                        HBond_Donors:                   2
##########                         Heavy_Atoms:                  35
##########                          Grid_Score:          -27.000795
##########                     Grid_vdw_energy:          -26.243578
##########                      Grid_es_energy:           -0.757218
##########           Internal_energy_repulsive:           83.675407

@<TRIPOS>MOLECULE
oleObject70.pdb
 62 65 1 0 0
SMALL
NO_CHARGES


@<TRIPOS>ATOM
      1 C          -6.6277    2.9595   52.6253 C.ar    1  UNL        -0.0620
      2 C          -6.7452    3.6912   53.8156 C.ar    1  UNL        -0.0590
      3 C          -7.9708    4.2823   54.1795 C.ar    1  UNL        -0.0456
      4 C          -9.1026    4.1283   53.3388 C.ar    1  UNL        -0.0187
      5 C          -8.9635    3.4012   52.1364 C.ar    1  UNL        -0.0565
      6 C          -7.7376    2.8187   51.7826 C.ar    1  UNL        -0.0619
      7 C         -10.4581    4.7596   53.7036 C.3     1  UNL         0.0909
      8 C         -11.4231    4.8991   52.5135 C.ar    1  UNL         0.0681
      9 C         -12.8131    5.1093   52.6994 C.ar    1  UNL        -0.0272
     10 C         -13.6316    5.2223   51.5597 C.ar    1  UNL        -0.0559
     11 C         -13.0497    5.1284   50.2874 C.ar    1  UNL        -0.0435
     12 C         -11.6647    4.9270   50.1956 C.ar    1  UNL         0.0272
     13 N         -10.8737    4.8181   51.2790 N.ar    1  UNL        -0.2587
     14 C         -13.4450    5.2103   54.0834 C.3     1  UNL        -0.0379
     15 N         -11.0573    4.1687   54.9207 N.am    1  UNL        -0.2987
     16 C         -11.6796    2.9306   55.0220 C.2     1  UNL         0.2437
     17 O         -11.7894    2.1701   54.0756 O.2     1  UNL        -0.2719
     18 C         -12.2106    2.5604   56.3863 C.ar    1  UNL         0.0371
     19 C         -12.0821    3.4190   57.5013 C.ar    1  UNL        -0.0494
     20 C         -12.5894    3.0435   58.7561 C.ar    1  UNL        -0.0570
     21 C         -13.2332    1.8062   58.9227 C.ar    1  UNL        -0.0341
     22 C         -13.3674    0.9476   57.8192 C.ar    1  UNL        -0.0570
     23 C         -12.8600    1.3211   56.5642 C.ar    1  UNL        -0.0494
     24 C         -13.7871    1.4064   60.2799 C.3     1  UNL         0.0208
     25 N         -12.7656    0.7427   61.0998 N.4     1  UNL        -0.3086
     26 C         -11.4454    1.3833   61.0351 C.3     1  UNL         0.0223
     27 C         -10.5453    0.9234   62.1740 C.ar    1  UNL        -0.0154
     28 C         -10.8613    1.2936   63.4953 C.ar    1  UNL        -0.0548
     29 C         -10.0510    0.8792   64.5649 C.ar    1  UNL        -0.0431
     30 C          -8.9176    0.0887   64.3196 C.ar    1  UNL         0.0421
     31 C          -8.5952   -0.2888   63.0067 C.ar    1  UNL        -0.0245
     32 C          -9.4051    0.1252   61.9354 C.ar    1  UNL         0.0465
     33 CL         -8.9658   -0.3798   60.3138 Cl      1  UNL        -0.0839
     34 CL         -7.9072   -0.4294   65.6522 Cl      1  UNL        -0.0843
     35 C          -8.0316    5.0904   55.4721 C.3     1  UNL        -0.0394
     36 H          -5.6764    2.5118   52.3524 H       1  UNL         0.0623
     37 H          -5.8745    3.8039   54.4554 H       1  UNL         0.0626
     38 H          -9.8046    3.2913   51.4601 H       1  UNL         0.0627
     39 H          -7.6484    2.2635   50.8534 H       1  UNL         0.0623
     40 H         -10.2322    5.7852   54.0102 H       1  UNL         0.0624
     41 H         -14.7022    5.3784   51.6569 H       1  UNL         0.0627
     42 H         -13.6576    5.2097   49.3914 H       1  UNL         0.0639
     43 H         -11.1727    4.8482   49.2271 H       1  UNL         0.0840
     44 H         -13.3562    4.2627   54.6284 H       1  UNL         0.0280
     45 H         -14.5136    5.4514   54.0217 H       1  UNL         0.0280
     46 H         -12.9693    5.9962   54.6824 H       1  UNL         0.0280
     47 H         -11.0159    4.7256   55.7628 H       1  UNL         0.1508
     48 H         -11.5910    4.3826   57.4123 H       1  UNL         0.0631
     49 H         -12.4852    3.7181   59.6015 H       1  UNL         0.0626
     50 H         -13.8680   -0.0102   57.9321 H       1  UNL         0.0626
     51 H         -12.9768    0.6399   55.7258 H       1  UNL         0.0631
     52 H         -14.6425    0.7335   60.1355 H       1  UNL         0.0479
     53 H         -14.1537    2.3024   60.7976 H       1  UNL         0.0479
     54 H         -12.6793   -0.2289   60.8021 H       1  UNL         0.1229
     55 H         -11.5645    2.4734   61.0854 H       1  UNL         0.0480
     56 H         -10.9641    1.1539   60.0756 H       1  UNL         0.0480
     57 H         -11.7395    1.9015   63.6944 H       1  UNL         0.0627
     58 H         -10.3030    1.1694   65.5810 H       1  UNL         0.0639
     59 H          -7.7194   -0.9034   62.8193 H       1  UNL         0.0654
     60 H          -7.0359    5.2273   55.9123 H       1  UNL         0.0280
     61 H          -8.6551    4.5879   56.2219 H       1  UNL         0.0280
     62 H          -8.4470    6.0906   55.2961 H       1  UNL         0.0280
@<TRIPOS>BOND
     1     1     2   ar
     2     1     6   ar
     3     1    36    1
     4     2     3   ar
     5     2    37    1
     6     3     4   ar
     7     3    35    1
     8     4     5   ar
     9     4     7    1
    10     5     6   ar
    11     5    38    1
    12     6    39    1
    13     7     8    1
    14     7    15    1
    15     7    40    1
    16     8     9   ar
    17     8    13   ar
    18     9    10   ar
    19     9    14    1
    20    10    11   ar
    21    10    41    1
    22    11    12   ar
    23    11    42    1
    24    12    13   ar
    25    12    43    1
    26    14    44    1
    27    14    45    1
    28    14    46    1
    29    15    16   am
    30    15    47    1
    31    16    17    2
    32    16    18    1
    33    18    19   ar
    34    18    23   ar
    35    19    20   ar
    36    19    48    1
    37    20    21   ar
    38    20    49    1
    39    21    22   ar
    40    21    24    1
    41    22    23   ar
    42    22    50    1
    43    23    51    1
    44    24    25    1
    45    24    52    1
    46    24    53    1
    47    25    26    1
    48    25    54    1
    49    26    27    1
    50    26    55    1
    51    26    56    1
    52    27    28   ar
    53    27    32   ar
    54    28    29   ar
    55    28    57    1
    56    29    30   ar
    57    29    58    1
    58    30    31   ar
    59    30    34    1
    60    31    32   ar
    61    31    59    1
    62    32    33    1
    63    35    60    1
    64    35    61    1
    65    35    62    1
@<TRIPOS>SUBSTRUCTURE
     1 UNL         1 TEMP              0 ****  ****    0 ROOT


##########                                Name:    ZINC001345966764
##########                DOCK_Rotatable_Bonds:                  10
##########                         Heavy_Atoms:                  22
##########                    Molecular_Weight:             333.258
##########                DOCK_Rotatable_Bonds:                  10
##########                       Formal_Charge:           0.0099997
##########                     HBond_Acceptors:                  11
##########                        HBond_Donors:                   4
##########                         Heavy_Atoms:                  22
##########                          Grid_Score:          -26.995914
##########                     Grid_vdw_energy:          -27.744276
##########                      Grid_es_energy:            0.748362
##########           Internal_energy_repulsive:            4.321180

@<TRIPOS>MOLECULE
ZINC001345966764
 38 38 1 0 0
SMALL
USER_CHARGES


@<TRIPOS>ATOM
      1 N1          0.5565   -1.6723   52.1101 N.3     1  ZINC001345966764   -0.8400
      2 C2          1.6386   -0.7106   51.8606 C.3     1  ZINC001345966764    0.0200
      3 C3          1.1000    0.4609   51.0369 C.3     1  ZINC001345966764    0.2800
      4 F4          2.1701    1.1849   50.5006 F       1  ZINC001345966764   -0.1900
      5 F5          0.3005   -0.0281   49.9980 F       1  ZINC001345966764   -0.1800
      6 C6          0.2652    1.3751   51.9359 C.3     1  ZINC001345966764    0.0800
      7 N7         -1.1200    1.3960   51.4593 N.am    1  ZINC001345966764   -0.7000
      8 C8         -2.0523    2.1027   52.1286 C.2     1  ZINC001345966764    0.5100
      9 O9         -1.7448    2.7202   53.1269 O.2     1  ZINC001345966764   -0.5100
     10 C10        -3.4651    2.1255   51.6415 C.2     1  ZINC001345966764    0.5100
     11 O11        -3.7607    1.5572   50.6109 O.2     1  ZINC001345966764   -0.5100
     12 N12        -4.4106    2.7774   52.3468 N.am    1  ZINC001345966764   -0.7000
     13 C13        -5.7958    2.7983   51.8702 C.3     1  ZINC001345966764    0.1200
     14 C14        -6.5206    4.0087   52.4619 C.3     1  ZINC001345966764    0.0600
     15 H15        -6.3791    4.8829   51.8264 H       1  ZINC001345966764    0.0900
     16 C16        -8.0256    3.7047   52.6309 C.3     1  ZINC001345966764   -0.1400
     17 C17        -8.4055    4.4117   53.9513 C.3     1  ZINC001345966764   -0.1500
     18 C18        -7.0850    5.0592   54.4237 C.3     1  ZINC001345966764    0.0300
     19 H19        -7.0302    6.0956   54.0906 H       1  ZINC001345966764    0.1200
     20 C20        -6.9702    4.9839   55.9475 C.3     1  ZINC001345966764    0.4600
     21 F21        -6.8888    3.6445   56.3434 F       1  ZINC001345966764   -0.1700
     22 F22        -5.8202    5.6636   56.3627 F       1  ZINC001345966764   -0.1700
     23 F23        -8.0968    5.5746   56.5299 F       1  ZINC001345966764   -0.1700
     24 O24        -6.0434    4.2765   53.7985 O.3     1  ZINC001345966764   -0.3500
     25 H25        -0.1838   -1.2513   52.6512 H       1  ZINC001345966764    0.3500
     26 H26         0.2017   -2.0501   51.2443 H       1  ZINC001345966764    0.3600
     27 H27         2.0220   -0.3403   52.8114 H       1  ZINC001345966764    0.1100
     28 H28         2.4418   -1.2019   51.3114 H       1  ZINC001345966764    0.0700
     29 H29         0.2916    1.0011   52.9593 H       1  ZINC001345966764    0.1100
     30 H30         0.6745    2.3849   51.9073 H       1  ZINC001345966764    0.1100
     31 H31        -1.3662    0.9014   50.6621 H       1  ZINC001345966764    0.4200
     32 H32        -4.1741    3.2326   53.1699 H       1  ZINC001345966764    0.4200
     33 H33        -5.8047    2.8655   50.7822 H       1  ZINC001345966764    0.1000
     34 H34        -6.3011    1.8841   52.1818 H       1  ZINC001345966764    0.0900
     35 H35        -8.5948    4.1187   51.7986 H       1  ZINC001345966764    0.0900
     36 H36        -8.1916    2.6304   52.7115 H       1  ZINC001345966764    0.0900
     37 H37        -9.1625    5.1751   53.7716 H       1  ZINC001345966764    0.1000
     38 H38        -8.7593    3.6869   54.6845 H       1  ZINC001345966764    0.0900
@<TRIPOS>BOND
     1     1     2    1
     2     1    25    1
     3     1    26    1
     4     2     3    1
     5     2    27    1
     6     2    28    1
     7     3     4    1
     8     3     5    1
     9     3     6    1
    10     6     7    1
    11     6    29    1
    12     6    30    1
    13     7     8   am
    14     7    31    1
    15     8     9    2
    16     8    10    1
    17    10    11    2
    18    10    12   am
    19    12    13    1
    20    12    32    1
    21    13    14    1
    22    13    33    1
    23    13    34    1
    24    14    15    1
    25    14    24    1
    26    14    16    1
    27    16    17    1
    28    16    35    1
    29    16    36    1
    30    17    18    1
    31    17    37    1
    32    17    38    1
    33    18    19    1
    34    18    20    1
    35    18    24    1
    36    20    21    1
    37    20    22    1
    38    20    23    1
@<TRIPOS>SUBSTRUCTURE
     1 ZINC001345966764        1 TEMP              0 ****  ****    0 ROOT


##########                                Name:    ZINC001707804910
##########                DOCK_Rotatable_Bonds:                   4
##########                         Heavy_Atoms:                  26
##########                    Molecular_Weight:             358.403
##########                DOCK_Rotatable_Bonds:                   4
##########                       Formal_Charge:          -0.0399996
##########                     HBond_Acceptors:                  10
##########                        HBond_Donors:                   0
##########                         Heavy_Atoms:                  26
##########                          Grid_Score:          -26.955328
##########                     Grid_vdw_energy:          -25.971050
##########                      Grid_es_energy:           -0.984278
##########           Internal_energy_repulsive:           11.591837

@<TRIPOS>MOLECULE
ZINC001707804910
 48 51 1 0 0
SMALL
USER_CHARGES


@<TRIPOS>ATOM
      1 C1        -10.0189    2.4592   58.9634 C.3     1  ZINC001707804910   -0.0700
      2 C2         -9.9323    1.2158   59.8103 C.2     1  ZINC001707804910    0.0700
      3 N3         -9.3858    1.1317   60.9961 N.2     1  ZINC001707804910   -0.2800
      4 N4         -9.5114   -0.1899   61.4433 N.pl3   1  ZINC001707804910   -0.3700
      5 C5         -9.0329   -0.7155   62.7243 C.3     1  ZINC001707804910    0.0900
      6 C6        -10.1511   -0.8934   60.4856 C.2     1  ZINC001707804910    0.0500
      7 C7        -10.5002   -2.3582   60.5429 C.3     1  ZINC001707804910    0.1800
      8 N8        -10.6794   -2.8711   59.1824 N.pl3   1  ZINC001707804910   -0.4600
      9 C9         -9.7000   -3.2603   58.3112 C.2     1  ZINC001707804910    0.1900
     10 C10        -8.2155   -3.2431   58.5705 C.3     1  ZINC001707804910   -0.0700
     11 N11       -10.2880   -3.6494   57.2156 N.2     1  ZINC001707804910   -0.2800
     12 N12       -11.5626   -3.5335   57.3343 N.2     1  ZINC001707804910   -0.3000
     13 C13       -11.8586   -3.0650   58.5237 C.2     1  ZINC001707804910    0.3500
     14 N14       -13.1286   -2.8078   59.0151 N.3     1  ZINC001707804910   -0.4600
     15 C15       -14.1524   -3.4956   58.2152 C.3     1  ZINC001707804910    0.0200
     16 C16       -15.5313   -3.2336   58.8266 C.3     1  ZINC001707804910    0.0700
     17 O17       -15.7560   -1.8229   58.8961 O.3     1  ZINC001707804910   -0.3600
     18 C18       -14.7778   -1.1214   59.6682 C.3     1  ZINC001707804910    0.2000
     19 H19       -14.7960   -1.4848   60.6957 H       1  ZINC001707804910    0.1000
     20 C20       -15.0860    0.3537   59.6506 C.2     1  ZINC001707804910    0.1600
     21 N21       -16.2406    0.9030   59.9000 N.2     1  ZINC001707804910   -0.2500
     22 N22       -16.1371    2.1811   59.7943 N.2     1  ZINC001707804910   -0.2900
     23 C23       -14.9129    2.4906   59.4739 C.2     1  ZINC001707804910    0.1700
     24 C24       -14.3728    3.8802   59.2538 C.3     1  ZINC001707804910   -0.0600
     25 O25       -14.2190    1.3438   59.3805 O.3     1  ZINC001707804910   -0.2200
     26 C26       -13.3912   -1.3622   59.0653 C.3     1  ZINC001707804910    0.0400
     27 C27       -10.4277   -0.0465   59.4671 C.2     1  ZINC001707804910   -0.2300
     28 H28       -10.9400    2.9936   59.1956 H       1  ZINC001707804910    0.0800
     29 H29        -9.1635    3.1016   59.1726 H       1  ZINC001707804910    0.0700
     30 H30       -10.0156    2.1818   57.9093 H       1  ZINC001707804910    0.0800
     31 H31        -9.7746   -0.5175   63.4982 H       1  ZINC001707804910    0.0800
     32 H32        -8.8745   -1.7906   62.6395 H       1  ZINC001707804910    0.0900
     33 H33        -8.0937   -0.2295   62.9884 H       1  ZINC001707804910    0.0900
     34 H34        -9.6951   -2.9047   61.0342 H       1  ZINC001707804910    0.1100
     35 H35       -11.4246   -2.4897   61.1054 H       1  ZINC001707804910    0.1200
     36 H36        -7.9282   -4.1533   59.0970 H       1  ZINC001707804910    0.0900
     37 H37        -7.6816   -3.1881   57.6219 H       1  ZINC001707804910    0.1000
     38 H38        -7.9632   -2.3755   59.1803 H       1  ZINC001707804910    0.0700
     39 H39       -14.1298   -3.1183   57.1928 H       1  ZINC001707804910    0.0700
     40 H40       -13.9530   -4.5673   58.2127 H       1  ZINC001707804910    0.0900
     41 H41       -16.2987   -3.6942   58.2044 H       1  ZINC001707804910    0.1200
     42 H42       -15.5715   -3.6585   59.8295 H       1  ZINC001707804910    0.0700
     43 H43       -13.9981    4.2780   60.1970 H       1  ZINC001707804910    0.1000
     44 H44       -13.5615    3.8439   58.5269 H       1  ZINC001707804910    0.1000
     45 H45       -15.1683    4.5240   58.8786 H       1  ZINC001707804910    0.1100
     46 H46       -12.6363   -0.8763   59.6835 H       1  ZINC001707804910    0.1000
     47 H47       -13.3565   -0.9506   58.0566 H       1  ZINC001707804910    0.0800
     48 H48       -10.9355   -0.3016   58.5488 H       1  ZINC001707804910    0.1500
@<TRIPOS>BOND
     1     1     2    1
     2     1    28    1
     3     1    29    1
     4     1    30    1
     5     2    27    1
     6     2     3    2
     7     3     4    1
     8     4     5    1
     9     4     6    1
    10     5    31    1
    11     5    32    1
    12     5    33    1
    13     6     7    1
    14     6    27    2
    15     7     8    1
    16     7    34    1
    17     7    35    1
    18     8    13    1
    19     8     9    1
    20     9    10    1
    21     9    11    2
    22    10    36    1
    23    10    37    1
    24    10    38    1
    25    11    12    1
    26    12    13    2
    27    13    14    1
    28    14    26    1
    29    14    15    1
    30    15    16    1
    31    15    39    1
    32    15    40    1
    33    16    17    1
    34    16    41    1
    35    16    42    1
    36    17    18    1
    37    18    19    1
    38    18    20    1
    39    18    26    1
    40    20    25    1
    41    20    21    2
    42    21    22    1
    43    22    23    2
    44    23    24    1
    45    23    25    1
    46    24    43    1
    47    24    44    1
    48    24    45    1
    49    26    46    1
    50    26    47    1
    51    27    48    1
@<TRIPOS>SUBSTRUCTURE
     1 ZINC001707804910        1 TEMP              0 ****  ****    0 ROOT


##########                                Name:    ZINC000623581528
##########                DOCK_Rotatable_Bonds:                   5
##########                         Heavy_Atoms:                  26
##########                    Molecular_Weight:             355.369
##########                DOCK_Rotatable_Bonds:                   5
##########                       Formal_Charge:        -4.47035e-07
##########                     HBond_Acceptors:                   7
##########                        HBond_Donors:                   2
##########                         Heavy_Atoms:                  26
##########                          Grid_Score:          -26.910570
##########                     Grid_vdw_energy:          -27.033966
##########                      Grid_es_energy:            0.123397
##########           Internal_energy_repulsive:           38.982201

@<TRIPOS>MOLECULE
ZINC000623581528
 44 47 1 0 0
SMALL
USER_CHARGES


@<TRIPOS>ATOM
      1 C1         -8.2807   -0.4895   64.7305 C.3     1  ZINC000623581528    0.1000
      2 N2         -8.8634    0.4916   63.8117 N.am    1  ZINC000623581528   -0.5500
      3 C3         -9.0773    1.7969   64.0704 C.2     1  ZINC000623581528    0.6300
      4 O4         -8.8146    2.3575   65.1169 O.2     1  ZINC000623581528   -0.4800
      5 O5         -9.6253    2.3821   62.9938 O.3     1  ZINC000623581528   -0.2300
      6 C6         -9.7762    1.4584   62.0133 C.ar    1  ZINC000623581528    0.0400
      7 C7        -10.2802    1.5225   60.7240 C.ar    1  ZINC000623581528   -0.0800
      8 C8        -10.3070    0.3869   59.9374 C.ar    1  ZINC000623581528   -0.0900
      9 C9         -9.8330   -0.8157   60.4309 C.ar    1  ZINC000623581528   -0.0900
     10 C10        -9.8665   -2.0488   59.5650 C.3     1  ZINC000623581528    0.1800
     11 N11       -11.1267   -2.7636   59.7819 N.am    1  ZINC000623581528   -0.7400
     12 C12       -12.2002   -2.4845   59.0162 C.2     1  ZINC000623581528    0.7100
     13 O13       -12.1232   -1.6384   58.1465 O.2     1  ZINC000623581528   -0.5800
     14 N14       -13.3590   -3.1434   59.2147 N.am    1  ZINC000623581528   -0.7300
     15 C15       -14.5254   -2.8413   58.3812 C.3     1  ZINC000623581528    0.2000
     16 H16       -15.4433   -2.9755   58.9535 H       1  ZINC000623581528    0.1000
     17 C17       -14.5377   -3.7445   57.1297 C.3     1  ZINC000623581528   -0.1300
     18 C18       -13.7942   -2.8798   56.0896 C.3     1  ZINC000623581528   -0.0800
     19 C19       -14.0179   -1.4493   56.5312 C.ar    1  ZINC000623581528   -0.1000
     20 C20       -13.8656   -0.2617   55.8355 C.ar    1  ZINC000623581528   -0.0800
     21 C21       -14.1323    0.9450   56.4520 C.ar    1  ZINC000623581528   -0.1400
     22 C22       -14.5531    0.9682   57.7706 C.ar    1  ZINC000623581528    0.0900
     23 F23       -14.8154    2.1469   58.3766 F       1  ZINC000623581528   -0.1400
     24 C24       -14.7051   -0.2179   58.4668 C.ar    1  ZINC000623581528   -0.1200
     25 C25       -14.4394   -1.4263   57.8505 C.ar    1  ZINC000623581528   -0.0900
     26 C26        -9.3287   -0.8893   61.7152 C.ar    1  ZINC000623581528   -0.0800
     27 C27        -9.2926    0.2468   62.5077 C.ar    1  ZINC000623581528    0.0700
     28 H28        -7.1979   -0.5048   64.6069 H       1  ZINC000623581528    0.0800
     29 H29        -8.5253   -0.2161   65.7570 H       1  ZINC000623581528    0.0900
     30 H30        -8.6854   -1.4776   64.5115 H       1  ZINC000623581528    0.0900
     31 H31       -10.6519    2.4587   60.3347 H       1  ZINC000623581528    0.1500
     32 H32       -10.7000    0.4381   58.9328 H       1  ZINC000623581528    0.1500
     33 H33        -9.7887   -1.7591   58.5171 H       1  ZINC000623581528    0.0800
     34 H34        -9.0308   -2.6984   59.8255 H       1  ZINC000623581528    0.0800
     35 H35       -11.1885   -3.4378   60.4766 H       1  ZINC000623581528    0.4000
     36 H36       -13.4209   -3.8175   59.9094 H       1  ZINC000623581528    0.4000
     37 H37       -13.9992   -4.6735   57.3171 H       1  ZINC000623581528    0.0900
     38 H38       -15.5592   -3.9458   56.8072 H       1  ZINC000623581528    0.0900
     39 H39       -12.7299   -3.1148   56.0937 H       1  ZINC000623581528    0.0800
     40 H40       -14.2137   -3.0390   55.0963 H       1  ZINC000623581528    0.0800
     41 H41       -13.5373   -0.2792   54.8067 H       1  ZINC000623581528    0.1300
     42 H42       -14.0124    1.8692   55.9063 H       1  ZINC000623581528    0.1400
     43 H43       -15.0334   -0.2002   59.4955 H       1  ZINC000623581528    0.1400
     44 H44        -8.9591   -1.8289   62.0987 H       1  ZINC000623581528    0.1400
@<TRIPOS>BOND
     1     1     2    1
     2     1    28    1
     3     1    29    1
     4     1    30    1
     5     2    27    1
     6     2     3   am
     7     3     4    2
     8     3     5    1
     9     5     6    1
    10     6    27   ar
    11     6     7   ar
    12     7     8   ar
    13     7    31    1
    14     8     9   ar
    15     8    32    1
    16     9    10    1
    17     9    26   ar
    18    10    11    1
    19    10    33    1
    20    10    34    1
    21    11    12   am
    22    11    35    1
    23    12    13    2
    24    12    14   am
    25    14    15    1
    26    14    36    1
    27    15    16    1
    28    15    25    1
    29    15    17    1
    30    17    18    1
    31    17    37    1
    32    17    38    1
    33    18    19    1
    34    18    39    1
    35    18    40    1
    36    19    25   ar
    37    19    20   ar
    38    20    21   ar
    39    20    41    1
    40    21    22   ar
    41    21    42    1
    42    22    23    1
    43    22    24   ar
    44    24    25   ar
    45    24    43    1
    46    26    27   ar
    47    26    44    1
@<TRIPOS>SUBSTRUCTURE
     1 ZINC000623581528        1 TEMP              0 ****  ****    0 ROOT


##########                                Name:    ZINC000629379364
##########                DOCK_Rotatable_Bonds:                   5
##########                         Heavy_Atoms:                  23
##########                    Molecular_Weight:             386.261
##########                DOCK_Rotatable_Bonds:                   5
##########                       Formal_Charge:               -0.02
##########                     HBond_Acceptors:                   5
##########                        HBond_Donors:                   1
##########                         Heavy_Atoms:                  23
##########                          Grid_Score:          -26.892973
##########                     Grid_vdw_energy:          -29.394829
##########                      Grid_es_energy:            2.501856
##########           Internal_energy_repulsive:           20.039267

@<TRIPOS>MOLECULE
ZINC000629379364
 44 46 1 0 0
SMALL
USER_CHARGES


@<TRIPOS>ATOM
      1 O1        -13.9591   -0.9629   56.3688 O.co2   1  ZINC000629379364   -0.6800
      2 C2        -14.0065   -2.1108   56.7770 C.2     1  ZINC000629379364    0.5000
      3 O3        -14.5010   -2.9842   56.0848 O.co2   1  ZINC000629379364   -0.6900
      4 C4        -13.4481   -2.4513   58.1347 C.3     1  ZINC000629379364   -0.1600
      5 H5        -13.7955   -3.4373   58.4433 H       1  ZINC000629379364    0.0800
      6 C6        -13.8856   -1.3939   59.1635 C.3     1  ZINC000629379364   -0.1300
      7 C7        -13.2193   -1.6307   60.5154 C.3     1  ZINC000629379364   -0.0100
      8 N8        -11.7498   -1.6980   60.3982 N.4     1  ZINC000629379364   -0.3700
      9 H9        -11.3404   -1.8562   61.3067 H       1  ZINC000629379364    0.4200
     10 C10       -11.2364   -0.4438   59.8312 C.3     1  ZINC000629379364   -0.0200
     11 C11       -10.6682    0.4280   60.9528 C.3     1  ZINC000629379364    0.0300
     12 O12        -9.8294   -0.3655   61.7945 O.3     1  ZINC000629379364   -0.3200
     13 C13        -9.3705    0.2167   62.9335 C.ar    1  ZINC000629379364    0.1600
     14 C14        -8.7657   -0.5562   63.9133 C.ar    1  ZINC000629379364   -0.2300
     15 C15        -8.2991    0.0389   65.0723 C.ar    1  ZINC000629379364    0.1500
     16 F16        -7.7098   -0.7131   66.0276 F       1  ZINC000629379364   -0.1200
     17 C17        -8.4359    1.4048   65.2531 C.ar    1  ZINC000629379364   -0.1600
     18 C18        -9.0395    2.1764   64.2762 C.ar    1  ZINC000629379364   -0.0300
     19 Br19       -9.2246    4.0417   64.5261 Br      1  ZINC000629379364   -0.0100
     20 C20        -9.5014    1.5861   63.1149 C.ar    1  ZINC000629379364   -0.1300
     21 C21       -11.4335   -2.8077   59.5137 C.3     1  ZINC000629379364   -0.0100
     22 H22       -11.9380   -3.7119   59.8544 H       1  ZINC000629379364    0.1400
     23 C23        -9.9453   -3.0916   59.2848 C.3     1  ZINC000629379364   -0.1300
     24 C24        -9.9403   -3.8627   57.9369 C.3     1  ZINC000629379364   -0.1200
     25 C25       -11.2385   -3.4568   57.1966 C.3     1  ZINC000629379364   -0.1100
     26 C26       -11.9298   -2.4257   58.0929 C.3     1  ZINC000629379364   -0.0700
     27 H27       -11.5687   -1.4251   57.8552 H       1  ZINC000629379364    0.1000
     28 H28       -13.6105   -0.4046   58.7980 H       1  ZINC000629379364    0.0800
     29 H29       -14.9677   -1.4405   59.2855 H       1  ZINC000629379364    0.1100
     30 H30       -13.4848   -0.8163   61.1896 H       1  ZINC000629379364    0.1200
     31 H31       -13.5856   -2.5687   60.9325 H       1  ZINC000629379364    0.1300
     32 H32       -10.4499   -0.6663   59.1101 H       1  ZINC000629379364    0.1400
     33 H33       -12.0467    0.0881   59.3326 H       1  ZINC000629379364    0.1700
     34 H34       -10.0846    1.2410   60.5208 H       1  ZINC000629379364    0.1100
     35 H35       -11.4869    0.8416   61.5418 H       1  ZINC000629379364    0.0900
     36 H36        -8.6592   -1.6216   63.7720 H       1  ZINC000629379364    0.1500
     37 H37        -8.0711    1.8684   66.1578 H       1  ZINC000629379364    0.1500
     38 H38        -9.9722    2.1894   62.3527 H       1  ZINC000629379364    0.1500
     39 H39        -9.3842   -2.1611   59.1985 H       1  ZINC000629379364    0.0800
     40 H40        -9.5437   -3.7125   60.0855 H       1  ZINC000629379364    0.0900
     41 H41        -9.0689   -3.5790   57.3468 H       1  ZINC000629379364    0.0800
     42 H42        -9.9347   -4.9371   58.1207 H       1  ZINC000629379364    0.0800
     43 H43       -10.9997   -3.0267   56.2240 H       1  ZINC000629379364    0.0900
     44 H44       -11.8913   -4.3217   57.0776 H       1  ZINC000629379364    0.0800
@<TRIPOS>BOND
     1     1     2   ar
     2     2     3   ar
     3     2     4    1
     4     4     5    1
     5     4    26    1
     6     4     6    1
     7     6     7    1
     8     6    28    1
     9     6    29    1
    10     7     8    1
    11     7    30    1
    12     7    31    1
    13     8     9    1
    14     8    10    1
    15     8    21    1
    16    10    11    1
    17    10    32    1
    18    10    33    1
    19    11    12    1
    20    11    34    1
    21    11    35    1
    22    12    13    1
    23    13    20   ar
    24    13    14   ar
    25    14    15   ar
    26    14    36    1
    27    15    16    1
    28    15    17   ar
    29    17    18   ar
    30    17    37    1
    31    18    19    1
    32    18    20   ar
    33    20    38    1
    34    21    22    1
    35    21    26    1
    36    21    23    1
    37    23    24    1
    38    23    39    1
    39    23    40    1
    40    24    25    1
    41    24    41    1
    42    24    42    1
    43    25    26    1
    44    25    43    1
    45    25    44    1
    46    26    27    1
@<TRIPOS>SUBSTRUCTURE
     1 ZINC000629379364        1 TEMP              0 ****  ****    0 ROOT


##########                                Name:    ZINC000371438955
##########                DOCK_Rotatable_Bonds:                   4
##########                         Heavy_Atoms:                  25
##########                    Molecular_Weight:             387.499
##########                DOCK_Rotatable_Bonds:                   4
##########                       Formal_Charge:          -0.0299995
##########                     HBond_Acceptors:                   9
##########                        HBond_Donors:                   1
##########                         Heavy_Atoms:                  25
##########                          Grid_Score:          -26.876740
##########                     Grid_vdw_energy:          -22.541876
##########                      Grid_es_energy:           -4.334864
##########           Internal_energy_repulsive:           43.177475

@<TRIPOS>MOLECULE
ZINC000371438955
 47 49 1 0 0
SMALL
USER_CHARGES


@<TRIPOS>ATOM
      1 C1        -13.3963    2.2803   60.1823 C.3     1  ZINC000371438955   -0.6800
      2 S2        -13.2684    2.3246   61.9912 S.o2    1  ZINC000371438955    2.6000
      3 O3        -13.8525    3.5146   62.5033 O.2     1  ZINC000371438955   -0.9500
      4 O4        -13.5865    1.0552   62.5449 O.2     1  ZINC000371438955   -0.9500
      5 N5        -11.6489    2.5048   62.2866 N.am    1  ZINC000371438955   -0.9900
      6 C6        -10.9745    3.6630   61.7746 C.3     1  ZINC000371438955    0.1300
      7 C7        -10.5255    3.3533   60.3367 C.3     1  ZINC000371438955   -0.1700
      8 C8         -9.3137    2.5191   60.3093 C.3     1  ZINC000371438955    0.1400
      9 N9         -9.5484    1.2457   61.0303 N.am    1  ZINC000371438955   -0.6200
     10 C10        -9.7728    0.1114   60.3378 C.2     1  ZINC000371438955    0.7100
     11 O11        -9.7827    0.1331   59.1222 O.2     1  ZINC000371438955   -0.5800
     12 N12        -9.9862   -1.0470   60.9929 N.am    1  ZINC000371438955   -0.7400
     13 C13       -10.2301   -2.2800   60.2402 C.3     1  ZINC000371438955    0.2000
     14 H14       -10.4520   -3.0805   60.9459 H       1  ZINC000371438955    0.1100
     15 C15        -8.9679   -2.6411   59.4766 C.3     1  ZINC000371438955   -0.1300
     16 C16        -9.2025   -3.9545   58.7173 C.3     1  ZINC000371438955   -0.1100
     17 S17       -10.3159   -3.5861   57.3306 S.3     1  ZINC000371438955   -0.1000
     18 C18       -11.5736   -2.6119   58.0941 C.ar    1  ZINC000371438955   -0.1100
     19 C19       -12.7502   -2.3884   57.3732 C.ar    1  ZINC000371438955    0.1100
     20 F20       -12.8920   -2.9231   56.1407 F       1  ZINC000371438955   -0.1300
     21 C21       -13.7679   -1.6271   57.9093 C.ar    1  ZINC000371438955   -0.1300
     22 C22       -13.6167   -1.0794   59.1705 C.ar    1  ZINC000371438955   -0.1000
     23 C23       -12.4591   -1.3009   59.8839 C.ar    1  ZINC000371438955   -0.1000
     24 C24       -11.4248   -2.0745   59.3559 C.ar    1  ZINC000371438955   -0.0800
     25 C25        -9.5365    1.2192   62.4662 C.3     1  ZINC000371438955    0.1000
     26 C26       -10.9411    1.4631   63.0801 C.3     1  ZINC000371438955    0.0900
     27 H27       -13.0080    3.2105   59.7677 H       1  ZINC000371438955    0.1300
     28 H28       -12.8168    1.4412   59.7975 H       1  ZINC000371438955    0.1300
     29 H29       -14.4411    2.1624   59.8947 H       1  ZINC000371438955    0.1300
     30 H30       -11.6546    4.5148   61.7730 H       1  ZINC000371438955    0.0800
     31 H31       -10.1047    3.8862   62.3924 H       1  ZINC000371438955    0.0800
     32 H32       -11.3289    2.8294   59.8189 H       1  ZINC000371438955    0.0800
     33 H33       -10.3230    4.2907   59.8184 H       1  ZINC000371438955    0.0900
     34 H34        -9.0472    2.3040   59.2745 H       1  ZINC000371438955    0.0900
     35 H35        -8.4943    3.0576   60.7856 H       1  ZINC000371438955    0.0700
     36 H36        -9.9783   -1.0643   61.9626 H       1  ZINC000371438955    0.4000
     37 H37        -8.7305   -1.8475   58.7681 H       1  ZINC000371438955    0.0900
     38 H38        -8.1416   -2.7668   60.1763 H       1  ZINC000371438955    0.1000
     39 H39        -8.2550   -4.3390   58.3399 H       1  ZINC000371438955    0.1200
     40 H40        -9.6641   -4.6879   59.3787 H       1  ZINC000371438955    0.1000
     41 H41       -14.6755   -1.4597   57.3486 H       1  ZINC000371438955    0.1400
     42 H42       -14.4062   -0.4776   59.5959 H       1  ZINC000371438955    0.1300
     43 H43       -12.3500   -0.8674   60.8671 H       1  ZINC000371438955    0.1400
     44 H44        -9.1703    0.2476   62.7980 H       1  ZINC000371438955    0.0800
     45 H45        -8.8579    1.9918   62.8275 H       1  ZINC000371438955    0.0900
     46 H46       -10.8338    1.7950   64.1128 H       1  ZINC000371438955    0.0800
     47 H47       -11.5152    0.5369   63.0536 H       1  ZINC000371438955    0.1000
@<TRIPOS>BOND
     1     1     2    1
     2     1    27    1
     3     1    28    1
     4     1    29    1
     5     2     3    2
     6     2     4    2
     7     2     5   am
     8     5    26    1
     9     5     6    1
    10     6     7    1
    11     6    30    1
    12     6    31    1
    13     7     8    1
    14     7    32    1
    15     7    33    1
    16     8     9    1
    17     8    34    1
    18     8    35    1
    19     9    10   am
    20     9    25    1
    21    10    11    2
    22    10    12   am
    23    12    13    1
    24    12    36    1
    25    13    14    1
    26    13    24    1
    27    13    15    1
    28    15    16    1
    29    15    37    1
    30    15    38    1
    31    16    17    1
    32    16    39    1
    33    16    40    1
    34    17    18    1
    35    18    24   ar
    36    18    19   ar
    37    19    20    1
    38    19    21   ar
    39    21    22   ar
    40    21    41    1
    41    22    23   ar
    42    22    42    1
    43    23    24   ar
    44    23    43    1
    45    25    26    1
    46    25    44    1
    47    25    45    1
    48    26    46    1
    49    26    47    1
@<TRIPOS>SUBSTRUCTURE
     1 ZINC000371438955        1 TEMP              0 ****  ****    0 ROOT


##########                                Name:    ZINC000482846390
##########                DOCK_Rotatable_Bonds:                   9
##########                         Heavy_Atoms:                  30
##########                    Molecular_Weight:             420.469
##########                DOCK_Rotatable_Bonds:                   9
##########                       Formal_Charge:          -0.0100011
##########                     HBond_Acceptors:                  11
##########                        HBond_Donors:                   2
##########                         Heavy_Atoms:                  30
##########                          Grid_Score:          -26.876251
##########                     Grid_vdw_energy:          -25.303913
##########                      Grid_es_energy:           -1.572339
##########           Internal_energy_repulsive:           26.230352

@<TRIPOS>MOLECULE
ZINC000482846390
 58 60 1 0 0
SMALL
USER_CHARGES


@<TRIPOS>ATOM
      1 C1        -11.5832   -0.9339   51.9830 C.3     1  ZINC000482846390   -0.1000
      2 C2        -12.1611    0.3544   52.5099 C.2     1  ZINC000482846390    0.0900
      3 C3        -11.6370    1.5908   52.3436 C.2     1  ZINC000482846390   -0.2700
      4 C4        -12.4785    2.5049   52.9857 C.2     1  ZINC000482846390    0.0700
      5 C5        -12.2762    3.9968   53.0517 C.3     1  ZINC000482846390   -0.0500
      6 C6        -11.5881    4.3605   54.3688 C.3     1  ZINC000482846390    0.1500
      7 H7        -11.3215    5.4175   54.3597 H       1  ZINC000482846390    0.1000
      8 C8        -10.3224    3.5168   54.5329 C.3     1  ZINC000482846390   -0.1700
      9 N9        -12.4993    4.0964   55.4851 N.am    1  ZINC000482846390   -0.6800
     10 C10       -12.2119    4.5662   56.7152 C.2     1  ZINC000482846390    0.5100
     11 O11       -11.1992    5.2093   56.8978 O.2     1  ZINC000482846390   -0.5200
     12 C12       -13.1406    4.2952   57.8544 C.2     1  ZINC000482846390    0.5100
     13 O13       -14.1782    4.9168   57.9524 O.2     1  ZINC000482846390   -0.5100
     14 N14       -12.8258    3.3604   58.7728 N.am    1  ZINC000482846390   -0.5900
     15 C15       -13.7325    3.0791   59.8947 C.3     1  ZINC000482846390    0.0500
     16 C16       -14.0615    1.5811   59.8952 C.3     1  ZINC000482846390    0.1000
     17 N17       -12.8059    0.8244   59.7924 N.am    1  ZINC000482846390   -0.6000
     18 C18       -12.4915   -0.1110   60.7103 C.2     1  ZINC000482846390    0.5200
     19 O19       -13.2483   -0.3348   61.6322 O.2     1  ZINC000482846390   -0.5000
     20 C20       -11.2111   -0.8727   60.5930 C.2     1  ZINC000482846390    0.5200
     21 O21       -10.2041   -0.4521   61.1238 O.2     1  ZINC000482846390   -0.5000
     22 N22       -11.1746   -2.0266   59.8975 N.am    1  ZINC000482846390   -0.6000
     23 C23       -12.3812   -2.5532   59.2401 C.3     1  ZINC000482846390    0.0700
     24 C24       -12.0344   -2.8803   57.7833 C.3     1  ZINC000482846390    0.0500
     25 O25       -10.8769   -3.7190   57.7519 O.3     1  ZINC000482846390   -0.3700
     26 C26        -9.6997   -3.1122   58.2900 C.3     1  ZINC000482846390    0.0500
     27 C27        -9.9258   -2.7939   59.7681 C.3     1  ZINC000482846390    0.0700
     28 C28       -11.8992    1.1057   58.6705 C.3     1  ZINC000482846390    0.0900
     29 C29       -11.5728    2.5998   58.6670 C.3     1  ZINC000482846390    0.0900
     30 N30       -13.4723    1.8412   53.5185 N.2     1  ZINC000482846390   -0.2800
     31 N31       -13.2970    0.4823   53.2272 N.pl3   1  ZINC000482846390   -0.4700
     32 H32       -11.9802   -1.1296   50.9870 H       1  ZINC000482846390    0.0800
     33 H33       -10.4975   -0.8510   51.9317 H       1  ZINC000482846390    0.0900
     34 H34       -11.8539   -1.7529   52.6494 H       1  ZINC000482846390    0.0700
     35 H35       -10.7291    1.8294   51.8096 H       1  ZINC000482846390    0.1500
     36 H36       -11.6535    4.3163   52.2160 H       1  ZINC000482846390    0.0900
     37 H37       -13.2429    4.4973   52.9964 H       1  ZINC000482846390    0.1100
     38 H38        -9.6444    3.7134   53.7024 H       1  ZINC000482846390    0.0700
     39 H39        -9.8321    3.7760   55.4713 H       1  ZINC000482846390    0.0700
     40 H40       -10.5889    2.4600   54.5421 H       1  ZINC000482846390    0.0600
     41 H41       -13.3094    3.5834   55.3390 H       1  ZINC000482846390    0.4200
     42 H42       -13.2473    3.3473   60.8332 H       1  ZINC000482846390    0.0800
     43 H43       -14.6503    3.6552   59.7768 H       1  ZINC000482846390    0.1600
     44 H44       -14.5718    1.3189   60.8221 H       1  ZINC000482846390    0.1100
     45 H45       -14.7006    1.3467   59.0439 H       1  ZINC000482846390    0.0800
     46 H46       -12.7124   -3.4575   59.7506 H       1  ZINC000482846390    0.0900
     47 H47       -13.1722   -1.8038   59.2698 H       1  ZINC000482846390    0.0900
     48 H48       -12.8722   -3.3986   57.3170 H       1  ZINC000482846390    0.1100
     49 H49       -11.8295   -1.9569   57.2415 H       1  ZINC000482846390    0.0600
     50 H50        -8.8580   -3.7972   58.1883 H       1  ZINC000482846390    0.1100
     51 H51        -9.4864   -2.1896   57.7501 H       1  ZINC000482846390    0.0600
     52 H52        -9.0906   -2.2060   60.1490 H       1  ZINC000482846390    0.1100
     53 H53       -10.0108   -3.7214   60.3344 H       1  ZINC000482846390    0.0800
     54 H54       -10.9814    0.5296   58.7885 H       1  ZINC000482846390    0.0900
     55 H55       -12.3844    0.8374   57.7320 H       1  ZINC000482846390    0.0900
     56 H56       -11.0626    2.8605   57.7396 H       1  ZINC000482846390    0.1100
     57 H57       -10.9341    2.8368   59.5178 H       1  ZINC000482846390    0.0800
     58 H58       -13.8850   -0.2400   53.4984 H       1  ZINC000482846390    0.4400
@<TRIPOS>BOND
     1     1     2    1
     2     1    32    1
     3     1    33    1
     4     1    34    1
     5     2    31    1
     6     2     3    2
     7     3     4    1
     8     3    35    1
     9     4     5    1
    10     4    30    2
    11     5     6    1
    12     5    36    1
    13     5    37    1
    14     6     7    1
    15     6     8    1
    16     6     9    1
    17     8    38    1
    18     8    39    1
    19     8    40    1
    20     9    10   am
    21     9    41    1
    22    10    11    2
    23    10    12    1
    24    12    13    2
    25    12    14   am
    26    14    29    1
    27    14    15    1
    28    15    16    1
    29    15    42    1
    30    15    43    1
    31    16    17    1
    32    16    44    1
    33    16    45    1
    34    17    18   am
    35    17    28    1
    36    18    19    2
    37    18    20    1
    38    20    21    2
    39    20    22   am
    40    22    27    1
    41    22    23    1
    42    23    24    1
    43    23    46    1
    44    23    47    1
    45    24    25    1
    46    24    48    1
    47    24    49    1
    48    25    26    1
    49    26    27    1
    50    26    50    1
    51    26    51    1
    52    27    52    1
    53    27    53    1
    54    28    29    1
    55    28    54    1
    56    28    55    1
    57    29    56    1
    58    29    57    1
    59    30    31    1
    60    31    58    1
@<TRIPOS>SUBSTRUCTURE
     1 ZINC000482846390        1 TEMP              0 ****  ****    0 ROOT


##########                                Name:    ZINC000898967786
##########                DOCK_Rotatable_Bonds:                   5
##########                         Heavy_Atoms:                  25
##########                    Molecular_Weight:             356.448
##########                DOCK_Rotatable_Bonds:                   5
##########                       Formal_Charge:        -2.38419e-07
##########                     HBond_Acceptors:                   7
##########                        HBond_Donors:                   1
##########                         Heavy_Atoms:                  25
##########                          Grid_Score:          -26.863861
##########                     Grid_vdw_energy:          -27.467073
##########                      Grid_es_energy:            0.603213
##########           Internal_energy_repulsive:           11.489025

@<TRIPOS>MOLECULE
ZINC000898967786
 45 48 1 0 0
SMALL
USER_CHARGES


@<TRIPOS>ATOM
      1 C1         -9.2662   -1.7279   59.9708 C.3     1  ZINC000898967786   -0.0800
      2 C2         -9.2147   -0.9275   61.2467 C.2     1  ZINC000898967786    0.0900
      3 C3         -9.6952    0.3244   61.4117 C.2     1  ZINC000898967786   -0.1000
      4 C4        -10.3738    1.1674   60.3630 C.3     1  ZINC000898967786    0.2200
      5 N5         -9.4475    2.2002   59.8921 N.am    1  ZINC000898967786   -0.7400
      6 C6         -9.6565    2.8021   58.7044 C.2     1  ZINC000898967786    0.7100
      7 O7        -10.6138    2.4879   58.0238 O.2     1  ZINC000898967786   -0.5800
      8 N8         -8.8044    3.7522   58.2713 N.am    1  ZINC000898967786   -0.6300
      9 C9         -9.0118    4.4232   56.9782 C.3     1  ZINC000898967786    0.0900
     10 C10        -7.7003    4.3642   56.1869 C.3     1  ZINC000898967786    0.0500
     11 O11        -6.6371    4.8669   56.9997 O.3     1  ZINC000898967786   -0.3700
     12 C12        -6.3945    4.1037   58.1840 C.3     1  ZINC000898967786    0.1400
     13 H13        -6.1786    3.0702   57.9132 H       1  ZINC000898967786    0.0700
     14 C14        -5.2193    4.6857   58.9261 C.2     1  ZINC000898967786   -0.1100
     15 C15        -5.3523    5.6534   59.8346 C.2     1  ZINC000898967786   -0.1800
     16 S16        -3.7728    6.0736   60.4842 S.3     1  ZINC000898967786    0.1100
     17 C17        -2.9977    4.8762   59.4551 C.2     1  ZINC000898967786   -0.2100
     18 C18        -3.9206    4.2528   58.7210 C.2     1  ZINC000898967786   -0.1300
     19 C19        -7.6424    4.1534   59.0802 C.3     1  ZINC000898967786    0.0900
     20 N20        -9.4508    0.6834   62.7092 N.pl3   1  ZINC000898967786   -0.3500
     21 C21        -9.7152    1.8190   63.4185 C.2     1  ZINC000898967786    0.0600
     22 C22        -9.3595    1.9170   64.7166 C.2     1  ZINC000898967786   -0.1400
     23 C23        -8.7101    0.8481   65.3562 C.2     1  ZINC000898967786   -0.1000
     24 C24        -8.4406   -0.2896   64.6609 C.2     1  ZINC000898967786   -0.0800
     25 C25        -8.8188   -0.3767   63.3060 C.2     1  ZINC000898967786    0.2400
     26 N26        -8.6919   -1.3396   62.4040 N.2     1  ZINC000898967786   -0.4900
     27 H27       -10.1915   -2.3032   59.9399 H       1  ZINC000898967786    0.0800
     28 H28        -9.2297   -1.0521   59.1163 H       1  ZINC000898967786    0.0700
     29 H29        -8.4146   -2.4071   59.9334 H       1  ZINC000898967786    0.0800
     30 H30       -10.6705    0.5362   59.5253 H       1  ZINC000898967786    0.1000
     31 H31       -11.2571    1.6401   60.7924 H       1  ZINC000898967786    0.0700
     32 H32        -8.6838    2.4507   60.4351 H       1  ZINC000898967786    0.4000
     33 H33        -9.7991    3.9140   56.4225 H       1  ZINC000898967786    0.1100
     34 H34        -9.2933    5.4629   57.1452 H       1  ZINC000898967786    0.0800
     35 H35        -7.4890    3.3316   55.9088 H       1  ZINC000898967786    0.0600
     36 H36        -7.7900    4.9731   55.2873 H       1  ZINC000898967786    0.1100
     37 H37        -6.2868    6.1093   60.1264 H       1  ZINC000898967786    0.1700
     38 H38        -1.9373    4.6734   59.4256 H       1  ZINC000898967786    0.1700
     39 H39        -3.6724    3.4749   58.0142 H       1  ZINC000898967786    0.1400
     40 H40        -7.7832    5.1662   59.4577 H       1  ZINC000898967786    0.0800
     41 H41        -7.5225    3.4632   59.9152 H       1  ZINC000898967786    0.0900
     42 H42       -10.2134    2.6471   62.9363 H       1  ZINC000898967786    0.1600
     43 H43        -9.5747    2.8214   65.2663 H       1  ZINC000898967786    0.1500
     44 H44        -8.4258    0.9293   66.3949 H       1  ZINC000898967786    0.1500
     45 H45        -7.9415   -1.1177   65.1422 H       1  ZINC000898967786    0.1500
@<TRIPOS>BOND
     1     1     2    1
     2     1    27    1
     3     1    28    1
     4     1    29    1
     5     2    26    1
     6     2     3    2
     7     3     4    1
     8     3    20    1
     9     4     5    1
    10     4    30    1
    11     4    31    1
    12     5     6   am
    13     5    32    1
    14     6     7    2
    15     6     8   am
    16     8    19    1
    17     8     9    1
    18     9    10    1
    19     9    33    1
    20     9    34    1
    21    10    11    1
    22    10    35    1
    23    10    36    1
    24    11    12    1
    25    12    13    1
    26    12    14    1
    27    12    19    1
    28    14    18    1
    29    14    15    2
    30    15    16    1
    31    15    37    1
    32    16    17    1
    33    17    18    2
    34    17    38    1
    35    18    39    1
    36    19    40    1
    37    19    41    1
    38    20    25    1
    39    20    21    1
    40    21    22    2
    41    21    42    1
    42    22    23    1
    43    22    43    1
    44    23    24    2
    45    23    44    1
    46    24    25    1
    47    24    45    1
    48    25    26    2
@<TRIPOS>SUBSTRUCTURE
     1 ZINC000898967786        1 TEMP              0 ****  ****    0 ROOT


##########                                Name:    ZINC000863246516
##########                DOCK_Rotatable_Bonds:                   5
##########                         Heavy_Atoms:                  25
##########                    Molecular_Weight:             356.489
##########                DOCK_Rotatable_Bonds:                   5
##########                       Formal_Charge:         -0.00999938
##########                     HBond_Acceptors:                   5
##########                        HBond_Donors:                   0
##########                         Heavy_Atoms:                  25
##########                          Grid_Score:          -26.832153
##########                     Grid_vdw_energy:          -22.168030
##########                      Grid_es_energy:           -4.664123
##########           Internal_energy_repulsive:           13.144789

@<TRIPOS>MOLECULE
ZINC000863246516
 49 52 1 0 0
SMALL
USER_CHARGES


@<TRIPOS>ATOM
      1 C1         -9.3517    3.9452   61.0245 C.3     1  ZINC000863246516   -0.0600
      2 C2        -10.5558    3.2068   61.5499 C.2     1  ZINC000863246516   -0.2000
      3 C3        -11.8297    3.5489   61.4174 C.2     1  ZINC000863246516    0.0900
      4 C4        -12.2406    4.7960   60.6777 C.3     1  ZINC000863246516   -0.1000
      5 N5        -12.7495    2.7168   61.9826 N.am    1  ZINC000863246516   -0.5300
      6 C6        -14.1851    2.9963   61.8975 C.3     1  ZINC000863246516    0.1200
      7 C7        -14.7313    2.4605   60.5726 C.3     1  ZINC000863246516   -0.1500
      8 C8        -15.3442    1.1017   60.7947 C.2     1  ZINC000863246516    0.5400
      9 O9        -16.1796    0.9474   61.6603 O.2     1  ZINC000863246516   -0.5300
     10 N10       -14.9639    0.0580   60.0315 N.am    1  ZINC000863246516   -0.6100
     11 C11       -15.4817   -1.3102   60.1462 C.3     1  ZINC000863246516    0.1100
     12 C12       -15.1345   -2.0274   58.8277 C.3     1  ZINC000863246516   -0.1300
     13 H13       -15.9575   -2.1289   58.1204 H       1  ZINC000863246516    0.1000
     14 C14       -14.2506   -3.2691   59.0312 C.3     1  ZINC000863246516   -0.1200
     15 C15       -13.0611   -2.3083   59.1891 C.3     1  ZINC000863246516   -0.0600
     16 H16       -12.8976   -1.9820   60.2162 H       1  ZINC000863246516    0.1000
     17 C17       -11.8001   -2.7956   58.5229 C.ar    1  ZINC000863246516   -0.0700
     18 C18       -10.6121   -2.8242   59.2290 C.ar    1  ZINC000863246516   -0.1200
     19 C19        -9.4555   -3.2711   58.6179 C.ar    1  ZINC000863246516   -0.1200
     20 C20        -9.4870   -3.6899   57.3009 C.ar    1  ZINC000863246516   -0.1200
     21 C21       -10.6753   -3.6622   56.5951 C.ar    1  ZINC000863246516   -0.1200
     22 C22       -11.8328   -3.2193   57.2075 C.ar    1  ZINC000863246516   -0.1200
     23 C23       -13.8658   -1.2885   58.3336 C.3     1  ZINC000863246516   -0.1100
     24 H24       -13.6722   -1.3108   57.2612 H       1  ZINC000863246516    0.1200
     25 C25       -13.9724    0.1132   58.9524 C.3     1  ZINC000863246516    0.1200
     26 C26       -12.2855    1.6303   62.6200 C.2     1  ZINC000863246516    0.4800
     27 O27       -12.9426    0.7737   63.1845 O.2     1  ZINC000863246516   -0.4700
     28 S28       -10.5710    1.6924   62.4702 S.3     1  ZINC000863246516    0.0100
     29 H29        -8.4460    3.4029   61.2960 H       1  ZINC000863246516    0.0700
     30 H30        -9.4176    4.0219   59.9392 H       1  ZINC000863246516    0.0800
     31 H31        -9.3205    4.9447   61.4582 H       1  ZINC000863246516    0.0800
     32 H32       -11.3524    5.3095   60.3097 H       1  ZINC000863246516    0.0900
     33 H33       -12.8788    4.5258   59.8364 H       1  ZINC000863246516    0.0800
     34 H34       -12.7879    5.4547   61.3520 H       1  ZINC000863246516    0.0800
     35 H35       -14.6997    2.5096   62.7260 H       1  ZINC000863246516    0.1000
     36 H36       -14.3494    4.0725   61.9496 H       1  ZINC000863246516    0.1000
     37 H37       -15.4900    3.1430   60.1897 H       1  ZINC000863246516    0.1000
     38 H38       -13.9185    2.3788   59.8509 H       1  ZINC000863246516    0.1000
     39 H39       -15.0064   -1.8199   60.9843 H       1  ZINC000863246516    0.0700
     40 H40       -16.5625   -1.2895   60.2860 H       1  ZINC000863246516    0.0800
     41 H41       -14.4840   -3.8264   59.9384 H       1  ZINC000863246516    0.0800
     42 H42       -14.1828   -3.9053   58.1488 H       1  ZINC000863246516    0.0900
     43 H43       -10.5874   -2.4971   60.2579 H       1  ZINC000863246516    0.1200
     44 H44        -8.5271   -3.2928   59.1694 H       1  ZINC000863246516    0.1200
     45 H45        -8.5833   -4.0384   56.8233 H       1  ZINC000863246516    0.1200
     46 H46       -10.7000   -3.9890   55.5661 H       1  ZINC000863246516    0.1200
     47 H47       -12.7612   -3.1975   56.6560 H       1  ZINC000863246516    0.1200
     48 H48       -14.2759    0.8306   58.1899 H       1  ZINC000863246516    0.0700
     49 H49       -13.0094    0.4056   59.3710 H       1  ZINC000863246516    0.0700
@<TRIPOS>BOND
     1     1     2    1
     2     1    29    1
     3     1    30    1
     4     1    31    1
     5     2    28    1
     6     2     3    2
     7     3     4    1
     8     3     5    1
     9     4    32    1
    10     4    33    1
    11     4    34    1
    12     5     6    1
    13     5    26   am
    14     6     7    1
    15     6    35    1
    16     6    36    1
    17     7     8    1
    18     7    37    1
    19     7    38    1
    20     8     9    2
    21     8    10   am
    22    10    25    1
    23    10    11    1
    24    11    12    1
    25    11    39    1
    26    11    40    1
    27    12    13    1
    28    12    23    1
    29    12    14    1
    30    14    15    1
    31    14    41    1
    32    14    42    1
    33    15    16    1
    34    15    17    1
    35    15    23    1
    36    17    22   ar
    37    17    18   ar
    38    18    19   ar
    39    18    43    1
    40    19    20   ar
    41    19    44    1
    42    20    21   ar
    43    20    45    1
    44    21    22   ar
    45    21    46    1
    46    22    47    1
    47    23    24    1
    48    23    25    1
    49    25    48    1
    50    25    49    1
    51    26    27    2
    52    26    28    1
@<TRIPOS>SUBSTRUCTURE
     1 ZINC000863246516        1 TEMP              0 ****  ****    0 ROOT


##########                                Name:    ZINC000464706598
##########                DOCK_Rotatable_Bonds:                   4
##########                         Heavy_Atoms:                  26
##########                    Molecular_Weight:             412.286
##########                DOCK_Rotatable_Bonds:                   4
##########                       Formal_Charge:           0.0100001
##########                     HBond_Acceptors:                   5
##########                        HBond_Donors:                   0
##########                         Heavy_Atoms:                  26
##########                          Grid_Score:          -26.823811
##########                     Grid_vdw_energy:          -26.275673
##########                      Grid_es_energy:           -0.548137
##########           Internal_energy_repulsive:           63.597980

@<TRIPOS>MOLECULE
ZINC000464706598
 44 47 1 0 0
SMALL
USER_CHARGES


@<TRIPOS>ATOM
      1 O1        -12.1373    1.0679   62.1237 O.2     1  ZINC000464706598   -0.5000
      2 C2        -12.8619    0.4775   61.3457 C.2     1  ZINC000464706598    0.5900
      3 C3        -12.3659   -0.7165   60.6375 C.2     1  ZINC000464706598   -0.2800
      4 C4        -11.1391   -0.8514   60.0184 C.2     1  ZINC000464706598    0.1300
      5 N5        -11.0863   -2.0905   59.4971 N.pl3   1  ZINC000464706598   -0.3100
      6 C6        -10.0091   -2.6339   58.7835 C.ar    1  ZINC000464706598    0.1700
      7 C7        -10.2259   -3.2453   57.5558 C.ar    1  ZINC000464706598   -0.1300
      8 C8         -9.1628   -3.7795   56.8546 C.ar    1  ZINC000464706598   -0.0600
      9 C9         -7.8827   -3.7065   57.3746 C.ar    1  ZINC000464706598   -0.1000
     10 Br10       -6.4295   -4.4397   56.4120 Br      1  ZINC000464706598   -0.0400
     11 C11        -7.6639   -3.0974   58.5976 C.ar    1  ZINC000464706598   -0.0700
     12 C12        -8.7228   -2.5570   59.3004 C.ar    1  ZINC000464706598   -0.1100
     13 N13       -12.2883   -2.7452   59.7881 N.2     1  ZINC000464706598   -0.2800
     14 C14       -13.0545   -1.9393   60.4706 C.2     1  ZINC000464706598    0.0700
     15 N15       -14.1205    0.9114   61.1352 N.am    1  ZINC000464706598   -0.6100
     16 C16       -15.0177    0.2099   60.2035 C.3     1  ZINC000464706598    0.0400
     17 C17       -15.6169    1.2413   59.2405 C.3     1  ZINC000464706598    0.0500
     18 O18       -16.1942    2.3098   59.9946 O.3     1  ZINC000464706598   -0.3700
     19 C19       -15.2556    3.0397   60.7884 C.3     1  ZINC000464706598    0.0500
     20 C20       -14.6398    2.0972   61.8350 C.3     1  ZINC000464706598    0.1600
     21 H21       -15.4020    1.8005   62.5555 H       1  ZINC000464706598    0.0900
     22 C22       -13.5126    2.7981   62.5484 C.ar    1  ZINC000464706598   -0.0500
     23 C23       -13.3994    2.7033   63.9229 C.ar    1  ZINC000464706598   -0.1000
     24 C24       -12.3655    3.3462   64.5774 C.ar    1  ZINC000464706598   -0.1100
     25 C25       -11.4443    4.0836   63.8573 C.ar    1  ZINC000464706598   -0.1200
     26 C26       -11.5568    4.1777   62.4828 C.ar    1  ZINC000464706598   -0.1100
     27 C27       -12.5883    3.5312   61.8279 C.ar    1  ZINC000464706598   -0.1000
     28 H28       -10.3650   -0.1005   59.9624 H       1  ZINC000464706598    0.1900
     29 H29       -11.2250   -3.3032   57.1497 H       1  ZINC000464706598    0.1400
     30 H30        -9.3309   -4.2552   55.8996 H       1  ZINC000464706598    0.1500
     31 H31        -6.6638   -3.0414   59.0012 H       1  ZINC000464706598    0.1500
     32 H32        -8.5516   -2.0813   60.2548 H       1  ZINC000464706598    0.1500
     33 H33       -14.0447   -2.1649   60.8380 H       1  ZINC000464706598    0.2100
     34 H34       -14.4538   -0.5338   59.6405 H       1  ZINC000464706598    0.1200
     35 H35       -15.8165   -0.2791   60.7612 H       1  ZINC000464706598    0.0800
     36 H36       -14.8324    1.6344   58.5939 H       1  ZINC000464706598    0.0600
     37 H37       -16.3873    0.7671   58.6325 H       1  ZINC000464706598    0.1100
     38 H38       -14.4697    3.4394   60.1474 H       1  ZINC000464706598    0.0600
     39 H39       -15.7661    3.8593   61.2940 H       1  ZINC000464706598    0.1100
     40 H40       -14.1192    2.1271   64.4855 H       1  ZINC000464706598    0.1100
     41 H41       -12.2775    3.2727   65.6513 H       1  ZINC000464706598    0.1200
     42 H42       -10.6368    4.5865   64.3688 H       1  ZINC000464706598    0.1200
     43 H43       -10.8373    4.7542   61.9202 H       1  ZINC000464706598    0.1200
     44 H44       -12.6762    3.6048   60.7539 H       1  ZINC000464706598    0.1100
@<TRIPOS>BOND
     1     1     2    2
     2     2     3    1
     3     2    15   am
     4     3    14    1
     5     3     4    2
     6     4     5    1
     7     4    28    1
     8     5     6    1
     9     5    13    1
    10     6    12   ar
    11     6     7   ar
    12     7     8   ar
    13     7    29    1
    14     8     9   ar
    15     8    30    1
    16     9    10    1
    17     9    11   ar
    18    11    12   ar
    19    11    31    1
    20    12    32    1
    21    13    14    2
    22    14    33    1
    23    15    20    1
    24    15    16    1
    25    16    17    1
    26    16    34    1
    27    16    35    1
    28    17    18    1
    29    17    36    1
    30    17    37    1
    31    18    19    1
    32    19    20    1
    33    19    38    1
    34    19    39    1
    35    20    21    1
    36    20    22    1
    37    22    27   ar
    38    22    23   ar
    39    23    24   ar
    40    23    40    1
    41    24    25   ar
    42    24    41    1
    43    25    26   ar
    44    25    42    1
    45    26    27   ar
    46    26    43    1
    47    27    44    1
@<TRIPOS>SUBSTRUCTURE
     1 ZINC000464706598        1 TEMP              0 ****  ****    0 ROOT


##########                                Name:    ZINC001013196242
##########                DOCK_Rotatable_Bonds:                   5
##########                         Heavy_Atoms:                  24
##########                    Molecular_Weight:              349.86
##########                DOCK_Rotatable_Bonds:                   5
##########                       Formal_Charge:        -3.05474e-07
##########                     HBond_Acceptors:                   6
##########                        HBond_Donors:                   1
##########                         Heavy_Atoms:                  24
##########                          Grid_Score:          -26.819107
##########                     Grid_vdw_energy:          -26.641796
##########                      Grid_es_energy:           -0.177312
##########           Internal_energy_repulsive:           30.604671

@<TRIPOS>MOLECULE
ZINC001013196242
 48 51 1 0 0
SMALL
USER_CHARGES


@<TRIPOS>ATOM
      1 C1        -13.9676   -0.1215   60.4437 C.3     1  ZINC001013196242   -0.1600
      2 C2        -12.5834   -0.2197   61.0881 C.3     1  ZINC001013196242    0.1400
      3 H3        -12.6554   -0.7400   62.0432 H       1  ZINC001013196242    0.0800
      4 C4        -12.0031    1.1940   61.3030 C.3     1  ZINC001013196242   -0.1400
      5 C5        -10.4991    1.0064   60.9709 C.3     1  ZINC001013196242    0.1300
      6 H6         -9.9563    0.6087   61.8284 H       1  ZINC001013196242    0.1100
      7 N7         -9.9020    2.2629   60.5117 N.am    1  ZINC001013196242   -0.7200
      8 C8        -10.4065    2.8940   59.4329 C.2     1  ZINC001013196242    0.5400
      9 O9        -11.3557    2.4225   58.8434 O.2     1  ZINC001013196242   -0.5200
     10 C10        -9.7911    4.1856   58.9595 C.3     1  ZINC001013196242   -0.1400
     11 C11        -9.0592    4.0612   57.6115 C.3     1  ZINC001013196242   -0.0800
     12 C12       -10.3972    4.4054   56.9483 C.3     1  ZINC001013196242   -0.1600
     13 C13       -10.6625    4.8374   55.5105 C.3     1  ZINC001013196242   -0.1700
     14 C14       -11.2626    3.5341   56.0448 C.3     1  ZINC001013196242   -0.1400
     15 C15       -10.7874    5.1178   58.2479 C.3     1  ZINC001013196242   -0.0800
     16 C16       -10.5613   -0.0320   59.8229 C.3     1  ZINC001013196242    0.0800
     17 N17       -11.6657   -0.9406   60.1940 N.am    1  ZINC001013196242   -0.6000
     18 C18       -11.8069   -2.2152   59.7796 C.2     1  ZINC001013196242    0.6100
     19 O19       -12.7619   -2.8729   60.1491 O.2     1  ZINC001013196242   -0.5400
     20 C20       -10.8098   -2.8098   58.8834 C.2     1  ZINC001013196242   -0.0400
     21 C21        -9.4750   -3.0085   59.1667 C.2     1  ZINC001013196242   -0.1400
     22 C22        -8.8984   -3.5993   58.0374 C.2     1  ZINC001013196242   -0.1200
     23 Cl23       -7.2340   -4.0608   57.8625 Cl      1  ZINC001013196242   -0.0400
     24 C24        -9.8699   -3.7478   57.1044 C.2     1  ZINC001013196242    0.0400
     25 N25       -11.0374   -3.2763   57.6086 N.pl3   1  ZINC001013196242   -0.4000
     26 C26       -12.3248   -3.2588   56.9095 C.3     1  ZINC001013196242    0.0700
     27 H27       -14.3687   -1.1233   60.2899 H       1  ZINC001013196242    0.0700
     28 H28       -14.6342    0.4402   61.0982 H       1  ZINC001013196242    0.0700
     29 H29       -13.8862    0.3885   59.4838 H       1  ZINC001013196242    0.0600
     30 H30       -12.4629    1.9076   60.6194 H       1  ZINC001013196242    0.0900
     31 H31       -12.1328    1.5110   62.3378 H       1  ZINC001013196242    0.0900
     32 H32        -9.1436    2.6406   60.9839 H       1  ZINC001013196242    0.4000
     33 H33        -9.2041    4.6825   59.7318 H       1  ZINC001013196242    0.1000
     34 H34        -8.2891    4.8178   57.4608 H       1  ZINC001013196242    0.1000
     35 H35        -8.7108    3.0514   57.3948 H       1  ZINC001013196242    0.0700
     36 H36       -11.3401    5.6767   55.3537 H       1  ZINC001013196242    0.1000
     37 H37        -9.8388    4.7589   54.8010 H       1  ZINC001013196242    0.0900
     38 H38       -10.8336    2.5982   55.6868 H       1  ZINC001013196242    0.0900
     39 H39       -12.3350    3.5161   56.2396 H       1  ZINC001013196242    0.1000
     40 H40       -11.8245    4.9552   58.5412 H       1  ZINC001013196242    0.0800
     41 H41       -10.4984    6.1685   58.2742 H       1  ZINC001013196242    0.0900
     42 H42       -10.7770    0.4622   58.8757 H       1  ZINC001013196242    0.0800
     43 H43        -9.6233   -0.5835   59.7591 H       1  ZINC001013196242    0.1000
     44 H44        -8.9698   -2.7552   60.0870 H       1  ZINC001013196242    0.1600
     45 H45        -9.7371   -4.1752   56.1215 H       1  ZINC001013196242    0.1800
     46 H46       -12.9017   -4.1406   57.1886 H       1  ZINC001013196242    0.0800
     47 H47       -12.8767   -2.3608   57.1870 H       1  ZINC001013196242    0.1000
     48 H48       -12.1538   -3.2623   55.8331 H       1  ZINC001013196242    0.0900
@<TRIPOS>BOND
     1     1     2    1
     2     1    27    1
     3     1    28    1
     4     1    29    1
     5     2     3    1
     6     2    17    1
     7     2     4    1
     8     4     5    1
     9     4    30    1
    10     4    31    1
    11     5     6    1
    12     5     7    1
    13     5    16    1
    14     7     8   am
    15     7    32    1
    16     8     9    2
    17     8    10    1
    18    10    15    1
    19    10    11    1
    20    10    33    1
    21    11    12    1
    22    11    34    1
    23    11    35    1
    24    12    14    1
    25    12    13    1
    26    12    15    1
    27    13    14    1
    28    13    36    1
    29    13    37    1
    30    14    38    1
    31    14    39    1
    32    15    40    1
    33    15    41    1
    34    16    17    1
    35    16    42    1
    36    16    43    1
    37    17    18   am
    38    18    19    2
    39    18    20    1
    40    20    25    1
    41    20    21    2
    42    21    22    1
    43    21    44    1
    44    22    23    1
    45    22    24    2
    46    24    25    1
    47    24    45    1
    48    25    26    1
    49    26    46    1
    50    26    47    1
    51    26    48    1
@<TRIPOS>SUBSTRUCTURE
     1 ZINC001013196242        1 TEMP              0 ****  ****    0 ROOT


##########                                Name:    ZINC000745364361
##########                DOCK_Rotatable_Bonds:                   8
##########                         Heavy_Atoms:                  29
##########                    Molecular_Weight:             398.434
##########                DOCK_Rotatable_Bonds:                   8
##########                       Formal_Charge:          0.00999923
##########                     HBond_Acceptors:                   7
##########                        HBond_Donors:                   1
##########                         Heavy_Atoms:                  29
##########                          Grid_Score:          -26.800573
##########                     Grid_vdw_energy:          -23.954399
##########                      Grid_es_energy:           -2.846174
##########           Internal_energy_repulsive:           16.306591

@<TRIPOS>MOLECULE
ZINC000745364361
 52 54 1 0 0
SMALL
USER_CHARGES


@<TRIPOS>ATOM
      1 C1        -13.9442   -2.8578   58.9268 C.3     1  ZINC000745364361   -0.1700
      2 C2        -14.1703   -1.3865   59.2804 C.3     1  ZINC000745364361    0.0700
      3 H3        -15.2110   -1.2378   59.5681 H       1  ZINC000745364361    0.1100
      4 O4        -13.8640   -0.5589   58.1273 O.3     1  ZINC000745364361   -0.3200
      5 C5        -14.2740    0.7186   58.1679 C.2     1  ZINC000745364361    0.4700
      6 O6        -14.8961    1.1233   59.1213 O.2     1  ZINC000745364361   -0.4900
      7 C7        -13.9581    1.6480   57.0245 C.3     1  ZINC000745364361   -0.0400
      8 H8        -14.7085    2.4372   56.9797 H       1  ZINC000745364361    0.1200
      9 C9        -12.5765    2.2694   57.2392 C.3     1  ZINC000745364361   -0.1400
     10 C10       -13.9653    0.8740   55.7314 C.ar    1  ZINC000745364361   -0.0500
     11 C11       -14.8611    1.2059   54.7325 C.ar    1  ZINC000745364361   -0.1000
     12 C12       -14.8688    0.4967   53.5456 C.ar    1  ZINC000745364361   -0.0900
     13 C13       -13.9806   -0.5448   53.3567 C.ar    1  ZINC000745364361   -0.1500
     14 C14       -13.0822   -0.8779   54.3566 C.ar    1  ZINC000745364361    0.1000
     15 F15       -12.2134   -1.8960   54.1730 F       1  ZINC000745364361   -0.1400
     16 C16       -13.0720   -0.1638   55.5425 C.ar    1  ZINC000745364361   -0.1400
     17 C17       -13.2719   -1.0019   60.4276 C.2     1  ZINC000745364361    0.5200
     18 O18       -13.6233   -1.2111   61.5696 O.2     1  ZINC000745364361   -0.5000
     19 N19       -12.0782   -0.4254   60.1847 N.am    1  ZINC000745364361   -0.6700
     20 C20       -11.2432   -0.0679   61.2511 C.ar    1  ZINC000745364361    0.1200
     21 C21        -9.9164   -0.4778   61.2617 C.ar    1  ZINC000745364361   -0.1100
     22 C22        -9.0935   -0.1255   62.3126 C.ar    1  ZINC000745364361   -0.1400
     23 C23        -9.5924    0.6392   63.3589 C.ar    1  ZINC000745364361    0.1500
     24 N24        -8.7575    0.9963   64.4255 N.am    1  ZINC000745364361   -0.5600
     25 C25        -8.1793    0.0428   65.3797 C.3     1  ZINC000745364361    0.0900
     26 C26        -7.0240    0.8005   66.0706 C.3     1  ZINC000745364361   -0.1300
     27 C27        -7.4748    2.2715   65.9164 C.3     1  ZINC000745364361   -0.1500
     28 C28        -8.3782    2.2556   64.7030 C.2     1  ZINC000745364361    0.5200
     29 O29        -8.7170    3.2373   64.0762 O.2     1  ZINC000745364361   -0.5100
     30 C30       -10.9187    1.0504   63.3476 C.ar    1  ZINC000745364361   -0.1400
     31 C31       -11.7406    0.7013   62.2948 C.ar    1  ZINC000745364361   -0.0900
     32 H32       -14.5939   -3.1361   58.0970 H       1  ZINC000745364361    0.0800
     33 H33       -12.9034   -3.0065   58.6389 H       1  ZINC000745364361    0.0800
     34 H34       -14.1741   -3.4790   59.7923 H       1  ZINC000745364361    0.0800
     35 H35       -11.8261    1.4801   57.2838 H       1  ZINC000745364361    0.0700
     36 H36       -12.3479    2.9416   56.4121 H       1  ZINC000745364361    0.0800
     37 H37       -12.5713    2.8291   58.1744 H       1  ZINC000745364361    0.0800
     38 H38       -15.5560    2.0195   54.8794 H       1  ZINC000745364361    0.1300
     39 H39       -15.5696    0.7566   52.7660 H       1  ZINC000745364361    0.1400
     40 H40       -13.9873   -1.0991   52.4299 H       1  ZINC000745364361    0.1400
     41 H41       -12.3716   -0.4223   56.3228 H       1  ZINC000745364361    0.1400
     42 H42       -11.7972   -0.2580   59.2716 H       1  ZINC000745364361    0.4100
     43 H43        -9.5284   -1.0726   60.4479 H       1  ZINC000745364361    0.1300
     44 H44        -8.0619   -0.4449   62.3212 H       1  ZINC000745364361    0.1600
     45 H45        -8.9271   -0.2560   66.1144 H       1  ZINC000745364361    0.0800
     46 H46        -7.7958   -0.8316   64.8539 H       1  ZINC000745364361    0.0900
     47 H47        -6.9497    0.5235   67.1223 H       1  ZINC000745364361    0.1000
     48 H48        -6.0796    0.6257   65.5551 H       1  ZINC000745364361    0.0900
     49 H49        -8.0227    2.5973   66.8005 H       1  ZINC000745364361    0.1100
     50 H50        -6.6148    2.9175   65.7398 H       1  ZINC000745364361    0.1100
     51 H51       -11.3067    1.6453   64.1612 H       1  ZINC000745364361    0.1300
     52 H52       -12.7722    1.0210   62.2861 H       1  ZINC000745364361    0.1400
@<TRIPOS>BOND
     1     1     2    1
     2     1    32    1
     3     1    33    1
     4     1    34    1
     5     2     3    1
     6     2     4    1
     7     2    17    1
     8     4     5    1
     9     5     6    2
    10     5     7    1
    11     7     8    1
    12     7     9    1
    13     7    10    1
    14     9    35    1
    15     9    36    1
    16     9    37    1
    17    10    16   ar
    18    10    11   ar
    19    11    12   ar
    20    11    38    1
    21    12    13   ar
    22    12    39    1
    23    13    14   ar
    24    13    40    1
    25    14    15    1
    26    14    16   ar
    27    16    41    1
    28    17    18    2
    29    17    19   am
    30    19    20    1
    31    19    42    1
    32    20    31   ar
    33    20    21   ar
    34    21    22   ar
    35    21    43    1
    36    22    23   ar
    37    22    44    1
    38    23    24    1
    39    23    30   ar
    40    24    28   am
    41    24    25    1
    42    25    26    1
    43    25    45    1
    44    25    46    1
    45    26    27    1
    46    26    47    1
    47    26    48    1
    48    27    28    1
    49    27    49    1
    50    27    50    1
    51    28    29    2
    52    30    31   ar
    53    30    51    1
    54    31    52    1
@<TRIPOS>SUBSTRUCTURE
     1 ZINC000745364361        1 TEMP              0 ****  ****    0 ROOT


##########                                Name:    ZINC000498646479
##########                DOCK_Rotatable_Bonds:                   7
##########                         Heavy_Atoms:                  29
##########                    Molecular_Weight:              407.58
##########                DOCK_Rotatable_Bonds:                   7
##########                       Formal_Charge:          -0.0199997
##########                     HBond_Acceptors:                   5
##########                        HBond_Donors:                   0
##########                         Heavy_Atoms:                  29
##########                          Grid_Score:          -26.796246
##########                     Grid_vdw_energy:          -25.820747
##########                      Grid_es_energy:           -0.975498
##########           Internal_energy_repulsive:           29.985041

@<TRIPOS>MOLECULE
ZINC000498646479
 58 61 1 0 0
SMALL
USER_CHARGES


@<TRIPOS>ATOM
      1 C1         -6.2528    2.5886   66.9300 C.3     1  ZINC000498646479   -0.1500
      2 C2         -6.3847    3.8642   66.0956 C.3     1  ZINC000498646479   -0.0600
      3 C3         -7.7784    3.9518   65.5290 C.2     1  ZINC000498646479   -0.1700
      4 C4         -8.8746    3.4540   66.1033 C.2     1  ZINC000498646479   -0.1400
      5 C5        -10.0470    3.6566   65.3957 C.2     1  ZINC000498646479   -0.1300
      6 C6         -9.9028    4.3190   64.2469 C.2     1  ZINC000498646479   -0.1900
      7 C7        -11.0209    4.6657   63.2979 C.3     1  ZINC000498646479    0.1300
      8 N8        -11.9606    3.5397   63.2160 N.3     1  ZINC000498646479   -0.5300
      9 C9        -11.4018    2.4450   62.4113 C.3     1  ZINC000498646479    0.0400
     10 C10       -12.3270    1.2267   62.4996 C.3     1  ZINC000498646479    0.1200
     11 N11       -13.6863    1.6440   62.1233 N.am    1  ZINC000498646479   -0.6100
     12 C12       -14.3851    0.9658   61.1916 C.2     1  ZINC000498646479    0.5200
     13 O13       -15.5048    1.3240   60.8935 O.2     1  ZINC000498646479   -0.5400
     14 C14       -13.7752   -0.2376   60.5202 C.3     1  ZINC000498646479   -0.1000
     15 H15       -13.1638   -0.7836   61.2386 H       1  ZINC000498646479    0.0900
     16 C16       -14.8878   -1.1500   59.9999 C.3     1  ZINC000498646479   -0.1500
     17 C17       -12.9015    0.2193   59.3502 C.3     1  ZINC000498646479   -0.0600
     18 C18       -12.4832   -0.9790   58.5377 C.ar    1  ZINC000498646479   -0.1200
     19 C19       -11.3466   -1.7266   58.8948 C.ar    1  ZINC000498646479   -0.0200
     20 C20       -10.5567   -1.4015   60.0070 C.ar    1  ZINC000498646479   -0.1200
     21 C21        -9.4676   -2.1646   60.3018 C.ar    1  ZINC000498646479   -0.1000
     22 C22        -9.1257   -3.2631   59.5148 C.ar    1  ZINC000498646479   -0.1200
     23 C23        -9.8697   -3.6079   58.4276 C.ar    1  ZINC000498646479   -0.0900
     24 C24       -10.9998   -2.8453   58.0928 C.ar    1  ZINC000498646479   -0.1100
     25 C25       -11.8050   -3.1525   56.9845 C.ar    1  ZINC000498646479    0.1400
     26 N26       -12.8525   -2.4101   56.7113 N.ar    1  ZINC000498646479   -0.4800
     27 C27       -13.2016   -1.3634   57.4462 C.ar    1  ZINC000498646479    0.0800
     28 C28       -14.2628    2.8209   62.7910 C.3     1  ZINC000498646479    0.1100
     29 C29       -13.2613    3.9764   62.6913 C.3     1  ZINC000498646479    0.0400
     30 S30        -8.2094    4.7329   64.0132 S.3     1  ZINC000498646479    0.1300
     31 H31        -5.2447    2.5252   67.3399 H       1  ZINC000498646479    0.0600
     32 H32        -6.9758    2.6115   67.7456 H       1  ZINC000498646479    0.0600
     33 H33        -6.4437    1.7204   66.2993 H       1  ZINC000498646479    0.0600
     34 H34        -6.1937    4.7324   66.7264 H       1  ZINC000498646479    0.0800
     35 H35        -5.6617    3.8414   65.2803 H       1  ZINC000498646479    0.0700
     36 H36        -8.8493    2.9320   67.0483 H       1  ZINC000498646479    0.1400
     37 H37       -11.0057    3.3046   65.7470 H       1  ZINC000498646479    0.1300
     38 H38       -11.5444    5.5502   63.6609 H       1  ZINC000498646479    0.0900
     39 H39       -10.6088    4.8677   62.3092 H       1  ZINC000498646479    0.0500
     40 H40       -11.3180    2.7635   61.3723 H       1  ZINC000498646479    0.0400
     41 H41       -10.4152    2.1808   62.7920 H       1  ZINC000498646479    0.1000
     42 H42       -11.9792    0.4524   61.8158 H       1  ZINC000498646479    0.1000
     43 H43       -12.3311    0.8432   63.5199 H       1  ZINC000498646479    0.0800
     44 H44       -14.4495   -2.0597   59.5894 H       1  ZINC000498646479    0.0700
     45 H45       -15.5591   -1.4077   60.8191 H       1  ZINC000498646479    0.0600
     46 H46       -15.4474   -0.6326   59.2207 H       1  ZINC000498646479    0.0700
     47 H47       -13.4675    0.9057   58.7204 H       1  ZINC000498646479    0.0900
     48 H48       -12.0156    0.7251   59.7342 H       1  ZINC000498646479    0.0800
     49 H49       -10.8098   -0.5526   60.6249 H       1  ZINC000498646479    0.1400
     50 H50        -8.8592   -1.9145   61.1583 H       1  ZINC000498646479    0.1300
     51 H51        -8.2564   -3.8502   59.7713 H       1  ZINC000498646479    0.1300
     52 H52        -9.5923   -4.4617   57.8274 H       1  ZINC000498646479    0.1300
     53 H53       -11.5628   -3.9980   56.3577 H       1  ZINC000498646479    0.1600
     54 H54       -14.0759   -0.7942   57.1665 H       1  ZINC000498646479    0.1500
     55 H55       -15.1947    3.1006   62.2999 H       1  ZINC000498646479    0.0900
     56 H56       -14.4529    2.5905   63.8393 H       1  ZINC000498646479    0.0800
     57 H57       -13.6233    4.8228   63.2750 H       1  ZINC000498646479    0.0900
     58 H58       -13.1516    4.2736   61.6484 H       1  ZINC000498646479    0.0400
@<TRIPOS>BOND
     1     1     2    1
     2     1    31    1
     3     1    32    1
     4     1    33    1
     5     2     3    1
     6     2    34    1
     7     2    35    1
     8     3    30    1
     9     3     4    2
    10     4     5    1
    11     4    36    1
    12     5     6    2
    13     5    37    1
    14     6     7    1
    15     6    30    1
    16     7     8    1
    17     7    38    1
    18     7    39    1
    19     8    29    1
    20     8     9    1
    21     9    10    1
    22     9    40    1
    23     9    41    1
    24    10    11    1
    25    10    42    1
    26    10    43    1
    27    11    12   am
    28    11    28    1
    29    12    13    2
    30    12    14    1
    31    14    15    1
    32    14    16    1
    33    14    17    1
    34    16    44    1
    35    16    45    1
    36    16    46    1
    37    17    18    1
    38    17    47    1
    39    17    48    1
    40    18    27   ar
    41    18    19   ar
    42    19    24   ar
    43    19    20   ar
    44    20    21   ar
    45    20    49    1
    46    21    22   ar
    47    21    50    1
    48    22    23   ar
    49    22    51    1
    50    23    24   ar
    51    23    52    1
    52    24    25   ar
    53    25    26   ar
    54    25    53    1
    55    26    27   ar
    56    27    54    1
    57    28    29    1
    58    28    55    1
    59    28    56    1
    60    29    57    1
    61    29    58    1
@<TRIPOS>SUBSTRUCTURE
     1 ZINC000498646479        1 TEMP              0 ****  ****    0 ROOT


##########                                Name:    ZINC000742270208
##########                DOCK_Rotatable_Bonds:                   5
##########                         Heavy_Atoms:                  25
##########                    Molecular_Weight:             376.328
##########                DOCK_Rotatable_Bonds:                   5
##########                       Formal_Charge:                0.02
##########                     HBond_Acceptors:                   9
##########                        HBond_Donors:                   0
##########                         Heavy_Atoms:                  25
##########                          Grid_Score:          -26.795305
##########                     Grid_vdw_energy:          -25.231974
##########                      Grid_es_energy:           -1.563332
##########           Internal_energy_repulsive:            8.897729

@<TRIPOS>MOLECULE
ZINC000742270208
 37 38 1 0 0
SMALL
USER_CHARGES


@<TRIPOS>ATOM
      1 C1        -14.6787   -3.6396   56.5669 C.3     1  ZINC000742270208   -0.1400
      2 C2        -14.5862   -2.5220   57.6079 C.3     1  ZINC000742270208   -0.1400
      3 C3        -14.9173   -3.0850   58.9914 C.3     1  ZINC000742270208   -0.1400
      4 C4        -13.1888   -1.9578   57.6163 C.2     1  ZINC000742270208    0.4000
      5 O5        -12.4463   -2.1633   56.6799 O.2     1  ZINC000742270208   -0.4300
      6 C6        -12.7253   -1.1574   58.7610 C.ar    1  ZINC000742270208   -0.1000
      7 C7        -13.3194    0.0770   59.0420 C.ar    1  ZINC000742270208   -0.0900
      8 C8        -12.8794    0.8211   60.1163 C.ar    1  ZINC000742270208   -0.0200
      9 C9        -11.8526    0.3494   60.9154 C.ar    1  ZINC000742270208   -0.6800
     10 S10       -11.2977    1.3077   62.2859 S.o2    1  ZINC000742270208    2.6600
     11 O11       -11.6864    2.6487   62.0215 O.2     1  ZINC000742270208   -0.9300
     12 O12       -11.6896    0.6009   63.4547 O.2     1  ZINC000742270208   -0.9000
     13 O13        -9.7759    1.2888   62.2622 O.3     1  ZINC000742270208   -0.6400
     14 C14        -9.2029    1.3252   63.4951 C.ar    1  ZINC000742270208    0.0500
     15 C15        -8.6638    0.1704   64.0453 C.ar    1  ZINC000742270208    0.0900
     16 F16        -8.7079   -0.9909   63.3563 F       1  ZINC000742270208   -0.0900
     17 C17        -8.0802    0.2097   65.3011 C.ar    1  ZINC000742270208    0.1100
     18 F18        -7.5554   -0.9139   65.8370 F       1  ZINC000742270208   -0.1000
     19 C19        -8.0340    1.3997   66.0071 C.ar    1  ZINC000742270208   -0.1100
     20 C20        -8.5715    2.5524   65.4602 C.ar    1  ZINC000742270208    0.1200
     21 F21        -8.5253    3.7125   66.1511 F       1  ZINC000742270208   -0.1000
     22 C22        -9.1514    2.5184   64.2025 C.ar    1  ZINC000742270208    0.1200
     23 F23        -9.6753    3.6436   63.6691 F       1  ZINC000742270208   -0.0900
     24 C24       -11.2596   -0.8714   60.6439 C.ar    1  ZINC000742270208   -0.0300
     25 C25       -11.6925   -1.6301   59.5769 C.ar    1  ZINC000742270208   -0.0800
     26 H26       -15.6894   -4.0477   56.5608 H       1  ZINC000742270208    0.0700
     27 H27       -14.4428   -3.2385   55.5813 H       1  ZINC000742270208    0.0600
     28 H28       -13.9697   -4.4288   56.8172 H       1  ZINC000742270208    0.0600
     29 H29       -15.2952   -1.7328   57.3576 H       1  ZINC000742270208    0.1000
     30 H30       -14.2083   -3.8742   59.2417 H       1  ZINC000742270208    0.0700
     31 H31       -14.8513   -2.2889   59.7330 H       1  ZINC000742270208    0.0600
     32 H32       -15.9280   -3.4931   58.9853 H       1  ZINC000742270208    0.0700
     33 H33       -14.1203    0.4468   58.4189 H       1  ZINC000742270208    0.1500
     34 H34       -13.3371    1.7747   60.3346 H       1  ZINC000742270208    0.1500
     35 H35        -7.5784    1.4288   66.9858 H       1  ZINC000742270208    0.1900
     36 H36       -10.4589   -1.2328   61.2720 H       1  ZINC000742270208    0.1500
     37 H37       -11.2288   -2.5825   59.3663 H       1  ZINC000742270208    0.1500
@<TRIPOS>BOND
     1     1     2    1
     2     1    26    1
     3     1    27    1
     4     1    28    1
     5     2     3    1
     6     2     4    1
     7     2    29    1
     8     3    30    1
     9     3    31    1
    10     3    32    1
    11     4     5    2
    12     4     6    1
    13     6    25   ar
    14     6     7   ar
    15     7     8   ar
    16     7    33    1
    17     8     9   ar
    18     8    34    1
    19     9    10    1
    20     9    24   ar
    21    10    11    2
    22    10    12    2
    23    10    13    1
    24    13    14    1
    25    14    22   ar
    26    14    15   ar
    27    15    16    1
    28    15    17   ar
    29    17    18    1
    30    17    19   ar
    31    19    20   ar
    32    19    35    1
    33    20    21    1
    34    20    22   ar
    35    22    23    1
    36    24    25   ar
    37    24    36    1
    38    25    37    1
@<TRIPOS>SUBSTRUCTURE
     1 ZINC000742270208        1 TEMP              0 ****  ****    0 ROOT


##########                                Name:    ZINC000579444893
##########                DOCK_Rotatable_Bonds:                   8
##########                         Heavy_Atoms:                  26
##########                    Molecular_Weight:             365.494
##########                DOCK_Rotatable_Bonds:                   8
##########                       Formal_Charge:         -0.00999993
##########                     HBond_Acceptors:                   7
##########                        HBond_Donors:                   1
##########                         Heavy_Atoms:                  26
##########                          Grid_Score:          -26.792007
##########                     Grid_vdw_energy:          -28.568020
##########                      Grid_es_energy:            1.776012
##########           Internal_energy_repulsive:           32.533463

@<TRIPOS>MOLECULE
ZINC000579444893
 58 60 1 0 0
SMALL
USER_CHARGES


@<TRIPOS>ATOM
      1 C1        -11.0412   -3.1213   57.4251 C.3     1  ZINC000579444893   -0.1600
      2 C2        -12.1996   -2.6984   58.3308 C.3     1  ZINC000579444893    0.1700
      3 H3        -12.1936   -3.3057   59.2359 H       1  ZINC000579444893    0.0900
      4 N4        -12.0484   -1.2860   58.6894 N.am    1  ZINC000579444893   -0.7400
      5 C5        -11.3562   -0.9413   59.7932 C.2     1  ZINC000579444893    0.7100
      6 O6        -10.8583   -1.8027   60.4922 O.2     1  ZINC000579444893   -0.5900
      7 N7        -11.2157    0.3581   60.1222 N.am    1  ZINC000579444893   -0.6300
      8 C8        -11.8171    1.3958   59.2810 C.3     1  ZINC000579444893    0.0800
      9 C9        -10.4617    0.7328   61.3210 C.3     1  ZINC000579444893    0.1100
     10 C10       -11.4139    0.8218   62.5153 C.3     1  ZINC000579444893    0.0600
     11 H11       -11.8992   -0.1410   62.6751 H       1  ZINC000579444893    0.1000
     12 C12       -12.4778    1.9097   62.2585 C.3     1  ZINC000579444893   -0.1600
     13 C13       -12.6500    2.5665   63.6535 C.3     1  ZINC000579444893    0.0800
     14 H14       -13.3312    1.9870   64.2765 H       1  ZINC000579444893    0.1000
     15 F15       -13.0876    3.8899   63.5338 F       1  ZINC000579444893   -0.2000
     16 C16       -11.2047    2.5071   64.2078 C.3     1  ZINC000579444893    0.0200
     17 N17       -10.6667    1.2137   63.7246 N.3     1  ZINC000579444893   -0.5000
     18 C18        -9.2280    1.3135   63.4450 C.3     1  ZINC000579444893    0.1000
     19 C19        -8.4901    1.6377   64.7183 C.2     1  ZINC000579444893    0.0800
     20 C20        -8.2501    2.8761   65.2080 C.2     1  ZINC000579444893   -0.2500
     21 C21        -7.5396    2.7354   66.4047 C.2     1  ZINC000579444893    0.0400
     22 N22        -7.3595    1.4584   66.6253 N.2     1  ZINC000579444893   -0.2900
     23 N23        -7.9553    0.7449   65.5773 N.pl3   1  ZINC000579444893   -0.3700
     24 C24        -7.9844   -0.7129   65.4343 C.3     1  ZINC000579444893    0.0900
     25 C25       -13.5242   -2.8980   57.5915 C.3     1  ZINC000579444893   -0.1000
     26 C26       -14.7035   -2.3554   58.4363 C.3     1  ZINC000579444893   -0.1200
     27 C27       -15.7880   -2.0726   57.3673 C.3     1  ZINC000579444893   -0.1300
     28 C28       -14.9972   -1.5230   56.1622 C.3     1  ZINC000579444893   -0.1300
     29 C29       -13.5578   -2.0477   56.3048 C.3     1  ZINC000579444893   -0.1200
     30 H30       -10.0948   -2.8938   57.9155 H       1  ZINC000579444893    0.0600
     31 H31       -11.1026   -4.1926   57.2332 H       1  ZINC000579444893    0.0700
     32 H32       -11.1011   -2.5792   56.4815 H       1  ZINC000579444893    0.0500
     33 H33       -12.4466   -0.5989   58.1325 H       1  ZINC000579444893    0.4000
     34 H34       -12.8584    1.5390   59.5693 H       1  ZINC000579444893    0.0600
     35 H35       -11.2720    2.3307   59.4117 H       1  ZINC000579444893    0.0800
     36 H36       -11.7682    1.0899   58.2360 H       1  ZINC000579444893    0.0700
     37 H37        -9.6985   -0.0194   61.5202 H       1  ZINC000579444893    0.0900
     38 H38        -9.9856    1.7005   61.1632 H       1  ZINC000579444893    0.0900
     39 H39       -12.1172    2.6376   61.5318 H       1  ZINC000579444893    0.1100
     40 H40       -13.4140    1.4621   61.9252 H       1  ZINC000579444893    0.0800
     41 H41       -10.6139    3.3353   63.8165 H       1  ZINC000579444893    0.0600
     42 H42       -11.2150    2.5287   65.2975 H       1  ZINC000579444893    0.0900
     43 H43        -8.8683    0.3641   63.0482 H       1  ZINC000579444893    0.1100
     44 H44        -9.0540    2.1024   62.7132 H       1  ZINC000579444893    0.0500
     45 H45        -8.5533    3.8084   64.7549 H       1  ZINC000579444893    0.1500
     46 H46        -7.1982    3.5417   67.0368 H       1  ZINC000579444893    0.1800
     47 H47        -8.9019   -1.1029   65.8752 H       1  ZINC000579444893    0.0800
     48 H48        -7.9494   -0.9750   64.3770 H       1  ZINC000579444893    0.0800
     49 H49        -7.1237   -1.1453   65.9446 H       1  ZINC000579444893    0.0900
     50 H50       -13.6737   -3.9518   57.3565 H       1  ZINC000579444893    0.0800
     51 H51       -15.0479   -3.1069   59.1466 H       1  ZINC000579444893    0.0700
     52 H52       -14.4199   -1.4373   58.9509 H       1  ZINC000579444893    0.0700
     53 H53       -16.3056   -2.9928   57.0962 H       1  ZINC000579444893    0.0700
     54 H54       -16.4966   -1.3281   57.7302 H       1  ZINC000579444893    0.0700
     55 H55       -15.4358   -1.8838   55.2318 H       1  ZINC000579444893    0.0600
     56 H56       -15.0006   -0.4331   56.1790 H       1  ZINC000579444893    0.0600
     57 H57       -12.8627   -1.2127   56.3909 H       1  ZINC000579444893    0.0600
     58 H58       -13.2977   -2.6633   55.4437 H       1  ZINC000579444893    0.0600
@<TRIPOS>BOND
     1     1     2    1
     2     1    30    1
     3     1    31    1
     4     1    32    1
     5     2     3    1
     6     2     4    1
     7     2    25    1
     8     4     5   am
     9     4    33    1
    10     5     6    2
    11     5     7   am
    12     7     8    1
    13     7     9    1
    14     8    34    1
    15     8    35    1
    16     8    36    1
    17     9    10    1
    18     9    37    1
    19     9    38    1
    20    10    11    1
    21    10    17    1
    22    10    12    1
    23    12    13    1
    24    12    39    1
    25    12    40    1
    26    13    14    1
    27    13    15    1
    28    13    16    1
    29    16    17    1
    30    16    41    1
    31    16    42    1
    32    17    18    1
    33    18    19    1
    34    18    43    1
    35    18    44    1
    36    19    23    1
    37    19    20    2
    38    20    21    1
    39    20    45    1
    40    21    22    2
    41    21    46    1
    42    22    23    1
    43    23    24    1
    44    24    47    1
    45    24    48    1
    46    24    49    1
    47    25    29    1
    48    25    26    1
    49    25    50    1
    50    26    27    1
    51    26    51    1
    52    26    52    1
    53    27    28    1
    54    27    53    1
    55    27    54    1
    56    28    29    1
    57    28    55    1
    58    28    56    1
    59    29    57    1
    60    29    58    1
@<TRIPOS>SUBSTRUCTURE
     1 ZINC000579444893        1 TEMP              0 ****  ****    0 ROOT


##########                                Name:    ZINC001513543414
##########                DOCK_Rotatable_Bonds:                   6
##########                         Heavy_Atoms:                  26
##########                    Molecular_Weight:             364.488
##########                DOCK_Rotatable_Bonds:                   6
##########                       Formal_Charge:         -0.00999974
##########                     HBond_Acceptors:                   7
##########                        HBond_Donors:                   0
##########                         Heavy_Atoms:                  26
##########                          Grid_Score:          -26.790590
##########                     Grid_vdw_energy:          -26.966028
##########                      Grid_es_energy:            0.175438
##########           Internal_energy_repulsive:           38.356785

@<TRIPOS>MOLECULE
ZINC001513543414
 58 61 1 0 0
SMALL
USER_CHARGES


@<TRIPOS>ATOM
      1 C1        -14.6238    1.2641   61.2120 C.3     1  ZINC001513543414   -0.1500
      2 C2        -14.8522    1.1831   59.7014 C.3     1  ZINC001513543414   -0.1200
      3 C3        -13.5793    1.6125   58.9693 C.3     1  ZINC001513543414    0.1100
      4 C4        -13.6166    1.1093   57.5249 C.3     1  ZINC001513543414   -0.1500
      5 C5        -13.4588    3.1514   58.9868 C.3     1  ZINC001513543414   -0.1500
      6 C6        -11.9360    3.3604   59.2091 C.3     1  ZINC001513543414   -0.1500
      7 C7        -11.6033    2.1522   60.1203 C.3     1  ZINC001513543414    0.0700
      8 H8        -11.8471    2.3822   61.1575 H       1  ZINC001513543414    0.0800
      9 C9        -10.1241    1.7823   59.9928 C.3     1  ZINC001513543414    0.1100
     10 N10        -9.7742    0.8052   61.0268 N.pl3   1  ZINC001513543414   -0.4600
     11 C11        -9.6529    1.0322   62.3698 C.2     1  ZINC001513543414    0.1900
     12 C12        -9.8557    2.3485   63.0751 C.3     1  ZINC001513543414    0.1800
     13 H13        -9.8490    3.1673   62.3558 H       1  ZINC001513543414    0.1000
     14 C14       -11.1894    2.3361   63.8637 C.3     1  ZINC001513543414   -0.1500
     15 C15       -10.8967    3.4020   64.9547 C.3     1  ZINC001513543414   -0.1500
     16 C16        -9.3886    3.1986   65.2151 C.3     1  ZINC001513543414    0.0500
     17 O17        -8.8339    2.5461   64.0652 O.3     1  ZINC001513543414   -0.3500
     18 N18        -9.3303   -0.1007   62.9267 N.2     1  ZINC001513543414   -0.2600
     19 N19        -9.2402   -1.0208   62.0340 N.2     1  ZINC001513543414   -0.3100
     20 C20        -9.5077   -0.5214   60.8504 C.2     1  ZINC001513543414    0.3400
     21 N21        -9.5105   -1.2092   59.6474 N.3     1  ZINC001513543414   -0.4500
     22 C22       -10.8861   -1.5792   59.2518 C.3     1  ZINC001513543414    0.0500
     23 C23       -10.7365   -2.9387   58.5245 C.3     1  ZINC001513543414   -0.1500
     24 C24        -9.6198   -3.6193   59.3590 C.3     1  ZINC001513543414    0.0700
     25 H25       -10.0361   -4.0870   60.2512 H       1  ZINC001513543414    0.0800
     26 O26        -8.9134   -4.5790   58.5703 O.3     1  ZINC001513543414   -0.3800
     27 C27        -8.3742   -4.0505   57.3571 C.3     1  ZINC001513543414    0.0300
     28 C28        -8.7018   -2.4386   59.7398 C.3     1  ZINC001513543414    0.0600
     29 O29       -12.4304    1.0807   59.6395 O.3     1  ZINC001513543414   -0.3600
     30 H30       -15.5307    0.9581   61.7335 H       1  ZINC001513543414    0.0500
     31 H31       -13.8035    0.6028   61.4914 H       1  ZINC001513543414    0.0500
     32 H32       -14.3744    2.2888   61.4874 H       1  ZINC001513543414    0.0600
     33 H33       -15.1016    0.1584   59.4260 H       1  ZINC001513543414    0.0700
     34 H34       -15.6725    1.8442   59.4221 H       1  ZINC001513543414    0.0600
     35 H35       -14.4770    1.5396   57.0124 H       1  ZINC001513543414    0.0700
     36 H36       -12.7019    1.4075   57.0124 H       1  ZINC001513543414    0.0600
     37 H37       -13.6975    0.0224   57.5208 H       1  ZINC001513543414    0.0700
     38 H38       -13.7735    3.5761   58.0335 H       1  ZINC001513543414    0.0900
     39 H39       -14.0329    3.5761   59.8104 H       1  ZINC001513543414    0.0800
     40 H40       -11.3902    3.3041   58.2672 H       1  ZINC001513543414    0.0800
     41 H41       -11.7391    4.3033   59.7193 H       1  ZINC001513543414    0.0900
     42 H42        -9.9409    1.3512   59.0087 H       1  ZINC001513543414    0.1000
     43 H43        -9.5139    2.6769   60.1170 H       1  ZINC001513543414    0.1100
     44 H44       -12.0229    2.6406   63.2306 H       1  ZINC001513543414    0.0900
     45 H45       -11.3735    1.3585   64.3090 H       1  ZINC001513543414    0.0900
     46 H46       -11.0934    4.4061   64.5787 H       1  ZINC001513543414    0.0800
     47 H47       -11.4763    3.2036   65.8562 H       1  ZINC001513543414    0.0900
     48 H48        -8.9048    4.1645   65.3598 H       1  ZINC001513543414    0.0700
     49 H49        -9.2467    2.5765   66.0989 H       1  ZINC001513543414    0.0700
     50 H50       -11.5181   -1.6879   60.1332 H       1  ZINC001513543414    0.0600
     51 H51       -11.3009   -0.8310   58.5762 H       1  ZINC001513543414    0.0900
     52 H52       -11.6630   -3.5109   58.5719 H       1  ZINC001513543414    0.0800
     53 H53       -10.4199   -2.7960   57.4913 H       1  ZINC001513543414    0.0900
     54 H54        -7.8536   -4.8408   56.8162 H       1  ZINC001513543414    0.0900
     55 H55        -9.1831   -3.6598   56.7399 H       1  ZINC001513543414    0.0400
     56 H56        -7.6745   -3.2478   57.5898 H       1  ZINC001513543414    0.0400
     57 H57        -7.8622   -2.3833   59.0468 H       1  ZINC001513543414    0.1000
     58 H58        -8.3367   -2.5666   60.7588 H       1  ZINC001513543414    0.0900
@<TRIPOS>BOND
     1     1     2    1
     2     1    30    1
     3     1    31    1
     4     1    32    1
     5     2     3    1
     6     2    33    1
     7     2    34    1
     8     3    29    1
     9     3     4    1
    10     3     5    1
    11     4    35    1
    12     4    36    1
    13     4    37    1
    14     5     6    1
    15     5    38    1
    16     5    39    1
    17     6     7    1
    18     6    40    1
    19     6    41    1
    20     7     8    1
    21     7     9    1
    22     7    29    1
    23     9    10    1
    24     9    42    1
    25     9    43    1
    26    10    20    1
    27    10    11    1
    28    11    12    1
    29    11    18    2
    30    12    13    1
    31    12    17    1
    32    12    14    1
    33    14    15    1
    34    14    44    1
    35    14    45    1
    36    15    16    1
    37    15    46    1
    38    15    47    1
    39    16    17    1
    40    16    48    1
    41    16    49    1
    42    18    19    1
    43    19    20    2
    44    20    21    1
    45    21    28    1
    46    21    22    1
    47    22    23    1
    48    22    50    1
    49    22    51    1
    50    23    24    1
    51    23    52    1
    52    23    53    1
    53    24    25    1
    54    24    26    1
    55    24    28    1
    56    26    27    1
    57    27    54    1
    58    27    55    1
    59    27    56    1
    60    28    57    1
    61    28    58    1
@<TRIPOS>SUBSTRUCTURE
     1 ZINC001513543414        1 TEMP              0 ****  ****    0 ROOT


##########                                Name:    ZINC001341052241
##########                DOCK_Rotatable_Bonds:                   7
##########                         Heavy_Atoms:                  24
##########                    Molecular_Weight:             336.478
##########                DOCK_Rotatable_Bonds:                   7
##########                       Formal_Charge:         5.96046e-08
##########                     HBond_Acceptors:                   6
##########                        HBond_Donors:                   0
##########                         Heavy_Atoms:                  24
##########                          Grid_Score:          -26.771915
##########                     Grid_vdw_energy:          -25.172989
##########                      Grid_es_energy:           -1.598926
##########           Internal_energy_repulsive:           25.189301

@<TRIPOS>MOLECULE
ZINC001341052241
 56 58 1 0 0
SMALL
USER_CHARGES


@<TRIPOS>ATOM
      1 C1         -8.5368   -0.8216   64.6880 C.3     1  ZINC001341052241   -0.1700
      2 C2         -8.2639   -0.0151   63.4168 C.3     1  ZINC001341052241    0.1100
      3 N3         -9.5230    0.5324   62.9061 N.pl3   1  ZINC001341052241   -0.4500
      4 C4        -10.1747    1.6517   63.3446 C.2     1  ZINC001341052241    0.1800
      5 C5         -9.7292    2.5669   64.4558 C.3     1  ZINC001341052241    0.1500
      6 O6        -10.8655    2.9785   65.2184 O.3     1  ZINC001341052241   -0.3700
      7 C7        -11.6816    3.9531   64.5654 C.3     1  ZINC001341052241    0.0900
      8 C8        -10.8512    5.2065   64.2824 C.3     1  ZINC001341052241   -0.1400
      9 C9        -11.7249    6.2499   63.5832 C.3     1  ZINC001341052241   -0.1200
     10 C10       -12.9058    6.6135   64.4856 C.3     1  ZINC001341052241   -0.1200
     11 C11       -13.7361    5.3601   64.7688 C.3     1  ZINC001341052241   -0.1200
     12 C12       -12.8624    4.3167   65.4679 C.3     1  ZINC001341052241   -0.1200
     13 N13       -11.2519    1.7807   62.6230 N.2     1  ZINC001341052241   -0.2600
     14 N14       -11.3217    0.8296   61.7613 N.2     1  ZINC001341052241   -0.3100
     15 C15       -10.2891    0.0309   61.8944 C.2     1  ZINC001341052241    0.3500
     16 N16       -10.0237   -1.1041   61.1450 N.3     1  ZINC001341052241   -0.4600
     17 C17       -11.2389   -1.5920   60.4805 C.3     1  ZINC001341052241    0.0700
     18 C18       -10.9419   -2.9219   59.7836 C.3     1  ZINC001341052241   -0.1100
     19 C19        -9.8241   -2.7164   58.7576 C.3     1  ZINC001341052241   -0.0900
     20 C20        -9.4807   -4.0549   58.1008 C.3     1  ZINC001341052241    0.0700
     21 O21        -8.8811   -3.8195   56.8251 O.3     1  ZINC001341052241   -0.3900
     22 C22        -7.4977   -4.1715   56.7593 C.3     1  ZINC001341052241    0.0300
     23 C23        -8.5859   -2.1622   59.4676 C.3     1  ZINC001341052241   -0.1100
     24 C24        -8.9511   -0.8544   60.1735 C.3     1  ZINC001341052241    0.0700
     25 H25        -8.9923   -0.1749   65.4378 H       1  ZINC001341052241    0.0600
     26 H26        -9.2139   -1.6442   64.4580 H       1  ZINC001341052241    0.0700
     27 H27        -7.5985   -1.2204   65.0737 H       1  ZINC001341052241    0.0800
     28 H28        -7.8178   -0.6643   62.6633 H       1  ZINC001341052241    0.0900
     29 H29        -7.5785    0.8014   63.6446 H       1  ZINC001341052241    0.1000
     30 H30        -9.0293    2.0385   65.1032 H       1  ZINC001341052241    0.0900
     31 H31        -9.2401    3.4433   64.0306 H       1  ZINC001341052241    0.0700
     32 H32       -12.0545    3.5443   63.6262 H       1  ZINC001341052241    0.0600
     33 H33       -10.4783    5.6152   65.2215 H       1  ZINC001341052241    0.0700
     34 H34       -10.0100    4.9474   63.6394 H       1  ZINC001341052241    0.0700
     35 H35       -12.0978    5.8413   62.6440 H       1  ZINC001341052241    0.0600
     36 H36       -11.1333    7.1429   63.3815 H       1  ZINC001341052241    0.0700
     37 H37       -13.5282    7.3569   63.9876 H       1  ZINC001341052241    0.0600
     38 H38       -12.5330    7.0222   65.4249 H       1  ZINC001341052241    0.0600
     39 H39       -14.1090    4.9514   63.8296 H       1  ZINC001341052241    0.0600
     40 H40       -14.5773    5.6192   65.4117 H       1  ZINC001341052241    0.0700
     41 H41       -13.4540    3.4236   65.6696 H       1  ZINC001341052241    0.0700
     42 H42       -12.4896    4.7253   66.4071 H       1  ZINC001341052241    0.0700
     43 H43       -11.5677   -0.8607   59.7422 H       1  ZINC001341052241    0.0600
     44 H44       -12.0245   -1.7380   61.2218 H       1  ZINC001341052241    0.0800
     45 H45       -11.8399   -3.2760   59.2775 H       1  ZINC001341052241    0.0800
     46 H46       -10.6262   -3.6577   60.5233 H       1  ZINC001341052241    0.0800
     47 H47       -10.1545   -2.0107   57.9954 H       1  ZINC001341052241    0.0800
     48 H48       -10.3909   -4.6404   57.9717 H       1  ZINC001341052241    0.0500
     49 H49        -8.7832   -4.6024   58.7346 H       1  ZINC001341052241    0.0500
     50 H50        -6.9389   -3.5872   57.4901 H       1  ZINC001341052241    0.0400
     51 H51        -7.1169   -3.9630   55.7594 H       1  ZINC001341052241    0.0900
     52 H52        -7.3822   -5.2332   56.9779 H       1  ZINC001341052241    0.0400
     53 H53        -8.2331   -2.8862   60.2022 H       1  ZINC001341052241    0.0700
     54 H54        -7.8006   -1.9736   58.7356 H       1  ZINC001341052241    0.0800
     55 H55        -9.2906   -0.1265   59.4367 H       1  ZINC001341052241    0.0600
     56 H56        -8.0751   -0.4646   60.6920 H       1  ZINC001341052241    0.0800
@<TRIPOS>BOND
     1     1     2    1
     2     1    25    1
     3     1    26    1
     4     1    27    1
     5     2     3    1
     6     2    28    1
     7     2    29    1
     8     3    15    1
     9     3     4    1
    10     4     5    1
    11     4    13    2
    12     5     6    1
    13     5    30    1
    14     5    31    1
    15     6     7    1
    16     7    12    1
    17     7     8    1
    18     7    32    1
    19     8     9    1
    20     8    33    1
    21     8    34    1
    22     9    10    1
    23     9    35    1
    24     9    36    1
    25    10    11    1
    26    10    37    1
    27    10    38    1
    28    11    12    1
    29    11    39    1
    30    11    40    1
    31    12    41    1
    32    12    42    1
    33    13    14    1
    34    14    15    2
    35    15    16    1
    36    16    24    1
    37    16    17    1
    38    17    18    1
    39    17    43    1
    40    17    44    1
    41    18    19    1
    42    18    45    1
    43    18    46    1
    44    19    20    1
    45    19    23    1
    46    19    47    1
    47    20    21    1
    48    20    48    1
    49    20    49    1
    50    21    22    1
    51    22    50    1
    52    22    51    1
    53    22    52    1
    54    23    24    1
    55    23    53    1
    56    23    54    1
    57    24    55    1
    58    24    56    1
@<TRIPOS>SUBSTRUCTURE
     1 ZINC001341052241        1 TEMP              0 ****  ****    0 ROOT


##########                                Name:    ZINC000345028113
##########                DOCK_Rotatable_Bonds:                   5
##########                         Heavy_Atoms:                  21
##########                    Molecular_Weight:             331.838
##########                DOCK_Rotatable_Bonds:                   5
##########                       Formal_Charge:         4.47035e-07
##########                     HBond_Acceptors:                   6
##########                        HBond_Donors:                   0
##########                         Heavy_Atoms:                  21
##########                          Grid_Score:          -26.766859
##########                     Grid_vdw_energy:          -26.381012
##########                      Grid_es_energy:           -0.385847
##########           Internal_energy_repulsive:           18.944126

@<TRIPOS>MOLECULE
ZINC000345028113
 40 41 1 0 0
SMALL
USER_CHARGES


@<TRIPOS>ATOM
      1 C1        -12.5067    0.9026   62.5281 C.3     1  ZINC000345028113   -0.1700
      2 C2        -11.6328    0.3904   61.3813 C.3     1  ZINC000345028113    0.1400
      3 H3        -11.3318   -0.6371   61.5850 H       1  ZINC000345028113    0.1100
      4 C4        -10.3861    1.2726   61.2561 C.3     1  ZINC000345028113   -0.0700
      5 H5         -9.7436    0.8868   60.4646 H       1  ZINC000345028113    0.0900
      6 C6         -9.6226    1.2727   62.5820 C.3     1  ZINC000345028113   -0.1400
      7 S7        -10.9053    2.9658   60.8482 S.3     1  ZINC000345028113   -0.2400
      8 C8        -11.9204    2.7123   59.3622 C.3     1  ZINC000345028113   -0.1100
      9 C9        -13.0119    1.6845   59.6792 C.3     1  ZINC000345028113    0.1000
     10 N10       -12.3920    0.4377   60.1308 N.am    1  ZINC000345028113   -0.6100
     11 C11       -12.5218   -0.6788   59.3871 C.2     1  ZINC000345028113    0.5200
     12 O12       -13.1508   -0.6473   58.3507 O.2     1  ZINC000345028113   -0.5300
     13 C13       -11.8855   -1.9664   59.8435 C.3     1  ZINC000345028113   -0.1400
     14 C14       -10.3758   -1.9023   59.6036 C.3     1  ZINC000345028113    0.0700
     15 O15        -9.8545   -3.2281   59.4919 O.3     1  ZINC000345028113   -0.3000
     16 C16        -8.9248   -3.4463   58.5239 C.ar    1  ZINC000345028113    0.1300
     17 C17        -7.5801   -3.5103   58.8551 C.ar    1  ZINC000345028113   -0.1700
     18 C18        -6.6361   -3.7326   57.8705 C.ar    1  ZINC000345028113   -0.1100
     19 C19        -7.0322   -3.8915   56.5537 C.ar    1  ZINC000345028113    0.0800
     20 F20        -6.1081   -4.1092   55.5926 F       1  ZINC000345028113   -0.1300
     21 C21        -8.3749   -3.8280   56.2205 C.ar    1  ZINC000345028113   -0.1100
     22 C22        -9.3218   -3.6111   57.2038 C.ar    1  ZINC000345028113   -0.0400
     23 Cl23      -11.0049   -3.5315   56.7864 Cl      1  ZINC000345028113   -0.0400
     24 H24       -13.3935    0.2751   62.6173 H       1  ZINC000345028113    0.0600
     25 H25       -11.9414    0.8674   63.4593 H       1  ZINC000345028113    0.0800
     26 H26       -12.8078    1.9302   62.3245 H       1  ZINC000345028113    0.0800
     27 H27        -9.3225    0.2542   62.8285 H       1  ZINC000345028113    0.0800
     28 H28        -8.7362    1.9006   62.4908 H       1  ZINC000345028113    0.0700
     29 H29       -10.2651    1.6633   63.3711 H       1  ZINC000345028113    0.0700
     30 H30       -12.3811    3.6557   59.0691 H       1  ZINC000345028113    0.1200
     31 H31       -11.2941    2.3417   58.5507 H       1  ZINC000345028113    0.0900
     32 H32       -13.6599    2.0732   60.4646 H       1  ZINC000345028113    0.0900
     33 H33       -13.6019    1.4930   58.7829 H       1  ZINC000345028113    0.1000
     34 H34       -12.0786   -2.1102   60.9067 H       1  ZINC000345028113    0.1100
     35 H35       -12.3077   -2.7995   59.2817 H       1  ZINC000345028113    0.1100
     36 H36       -10.1773   -1.3550   58.6820 H       1  ZINC000345028113    0.0800
     37 H37        -9.8963   -1.3925   60.4393 H       1  ZINC000345028113    0.0800
     38 H38        -7.2702   -3.3860   59.8822 H       1  ZINC000345028113    0.1500
     39 H39        -5.5886   -3.7820   58.1285 H       1  ZINC000345028113    0.1500
     40 H40        -8.6825   -3.9519   55.1927 H       1  ZINC000345028113    0.1500
@<TRIPOS>BOND
     1     1     2    1
     2     1    24    1
     3     1    25    1
     4     1    26    1
     5     2     3    1
     6     2    10    1
     7     2     4    1
     8     4     5    1
     9     4     6    1
    10     4     7    1
    11     6    27    1
    12     6    28    1
    13     6    29    1
    14     7     8    1
    15     8     9    1
    16     8    30    1
    17     8    31    1
    18     9    10    1
    19     9    32    1
    20     9    33    1
    21    10    11   am
    22    11    12    2
    23    11    13    1
    24    13    14    1
    25    13    34    1
    26    13    35    1
    27    14    15    1
    28    14    36    1
    29    14    37    1
    30    15    16    1
    31    16    22   ar
    32    16    17   ar
    33    17    18   ar
    34    17    38    1
    35    18    19   ar
    36    18    39    1
    37    19    20    1
    38    19    21   ar
    39    21    22   ar
    40    21    40    1
    41    22    23    1
@<TRIPOS>SUBSTRUCTURE
     1 ZINC000345028113        1 TEMP              0 ****  ****    0 ROOT


##########                                Name:    ZINC000518234532
##########                DOCK_Rotatable_Bonds:                   5
##########                         Heavy_Atoms:                  25
##########                    Molecular_Weight:             408.267
##########                DOCK_Rotatable_Bonds:                   5
##########                       Formal_Charge:         -0.00999981
##########                     HBond_Acceptors:                   5
##########                        HBond_Donors:                   1
##########                         Heavy_Atoms:                  25
##########                          Grid_Score:          -26.685696
##########                     Grid_vdw_energy:          -27.350342
##########                      Grid_es_energy:            0.664647
##########           Internal_energy_repulsive:           15.700459

@<TRIPOS>MOLECULE
ZINC000518234532
 44 46 1 0 0
SMALL
USER_CHARGES


@<TRIPOS>ATOM
      1 C1          1.0532    4.1693   52.9912 C.3     1  ZINC000518234532   -0.1600
      2 C2          0.2777    3.2176   53.9045 C.3     1  ZINC000518234532    0.1800
      3 H3          0.7300    2.2267   53.8647 H       1  ZINC000518234532    0.1100
      4 N4          0.3196    3.7187   55.2805 N.am    1  ZINC000518234532   -0.7300
      5 C5          1.2100    3.2110   56.1557 C.2     1  ZINC000518234532    0.5200
      6 O6          1.9754    2.3382   55.8044 O.2     1  ZINC000518234532   -0.5200
      7 C7          1.2544    3.7277   57.5706 C.3     1  ZINC000518234532   -0.0700
      8 H8          0.7742    4.7052   57.6157 H       1  ZINC000518234532    0.1100
      9 C9          2.7107    3.8535   58.0222 C.3     1  ZINC000518234532   -0.1400
     10 C10         0.5280    2.7690   58.4785 C.ar    1  ZINC000518234532   -0.1000
     11 C11         1.1081    1.5605   58.8137 C.ar    1  ZINC000518234532   -0.0600
     12 C12         0.4418    0.6806   59.6467 C.ar    1  ZINC000518234532   -0.1300
     13 C13        -0.8053    1.0085   60.1445 C.ar    1  ZINC000518234532   -0.0900
     14 C14        -1.3878    2.2166   59.8101 C.ar    1  ZINC000518234532   -0.1600
     15 C15        -0.7187    3.1011   58.9816 C.ar    1  ZINC000518234532    0.1000
     16 F16        -1.2870    4.2822   58.6541 F       1  ZINC000518234532   -0.1400
     17 C17        -1.1547    3.1349   53.4435 C.ar    1  ZINC000518234532   -0.0600
     18 C18        -2.1079    3.9657   54.0009 C.ar    1  ZINC000518234532   -0.1100
     19 C19        -3.4269    3.8925   53.5781 C.ar    1  ZINC000518234532    0.0800
     20 C20        -3.7870    2.9831   52.5909 C.ar    1  ZINC000518234532    0.0600
     21 C21        -2.8262    2.1509   52.0358 C.ar    1  ZINC000518234532   -0.0800
     22 C22        -1.5122    2.2314   52.4589 C.ar    1  ZINC000518234532   -0.0800
     23 Br23       -0.2045    1.0962   51.6993 Br      1  ZINC000518234532   -0.0300
     24 O24        -5.0741    2.9004   52.1561 O.3     1  ZINC000518234532   -0.3000
     25 C25        -6.0757    3.4863   52.9948 C.3     1  ZINC000518234532    0.0200
     26 C26        -5.5871    4.8750   53.4286 C.3     1  ZINC000518234532    0.0200
     27 O27        -4.3550    4.7147   54.1398 O.3     1  ZINC000518234532   -0.3000
     28 H28         2.0892    4.2292   53.3247 H       1  ZINC000518234532    0.0700
     29 H29         1.0219    3.7965   51.9675 H       1  ZINC000518234532    0.0700
     30 H30         0.6008    5.1603   53.0310 H       1  ZINC000518234532    0.0600
     31 H31        -0.2933    4.4159   55.5617 H       1  ZINC000518234532    0.4000
     32 H32         3.2362    4.5469   57.3655 H       1  ZINC000518234532    0.0700
     33 H33         2.7428    4.2271   59.0456 H       1  ZINC000518234532    0.0700
     34 H34         3.1909    2.8759   57.9772 H       1  ZINC000518234532    0.0700
     35 H35         2.0821    1.3029   58.4248 H       1  ZINC000518234532    0.1300
     36 H36         0.8959   -0.2636   59.9081 H       1  ZINC000518234532    0.1300
     37 H37        -1.3250    0.3203   60.7947 H       1  ZINC000518234532    0.1300
     38 H38        -2.3625    2.4723   60.1987 H       1  ZINC000518234532    0.1400
     39 H39        -1.8256    4.6728   54.7670 H       1  ZINC000518234532    0.1400
     40 H40        -3.1039    1.4418   51.2701 H       1  ZINC000518234532    0.1500
     41 H41        -7.0094    3.5816   52.4405 H       1  ZINC000518234532    0.1300
     42 H42        -6.2315    2.8604   53.8734 H       1  ZINC000518234532    0.0800
     43 H43        -5.4255    5.4990   52.5495 H       1  ZINC000518234532    0.0800
     44 H44        -6.3290    5.3392   54.0782 H       1  ZINC000518234532    0.1300
@<TRIPOS>BOND
     1     1     2    1
     2     1    28    1
     3     1    29    1
     4     1    30    1
     5     2     3    1
     6     2     4    1
     7     2    17    1
     8     4     5   am
     9     4    31    1
    10     5     6    2
    11     5     7    1
    12     7     8    1
    13     7     9    1
    14     7    10    1
    15     9    32    1
    16     9    33    1
    17     9    34    1
    18    10    15   ar
    19    10    11   ar
    20    11    12   ar
    21    11    35    1
    22    12    13   ar
    23    12    36    1
    24    13    14   ar
    25    13    37    1
    26    14    15   ar
    27    14    38    1
    28    15    16    1
    29    17    22   ar
    30    17    18   ar
    31    18    19   ar
    32    18    39    1
    33    19    27    1
    34    19    20   ar
    35    20    21   ar
    36    20    24    1
    37    21    22   ar
    38    21    40    1
    39    22    23    1
    40    24    25    1
    41    25    26    1
    42    25    41    1
    43    25    42    1
    44    26    27    1
    45    26    43    1
    46    26    44    1
@<TRIPOS>SUBSTRUCTURE
     1 ZINC000518234532        1 TEMP              0 ****  ****    0 ROOT


##########                                Name:    ZINC000002873519
##########                DOCK_Rotatable_Bonds:                   5
##########                         Heavy_Atoms:                  25
##########                    Molecular_Weight:             375.207
##########                DOCK_Rotatable_Bonds:                   5
##########                       Formal_Charge:               -0.02
##########                     HBond_Acceptors:                   6
##########                        HBond_Donors:                   0
##########                         Heavy_Atoms:                  25
##########                          Grid_Score:          -26.655628
##########                     Grid_vdw_energy:          -25.886873
##########                      Grid_es_energy:           -0.768756
##########           Internal_energy_repulsive:            5.783329

@<TRIPOS>MOLECULE
ZINC000002873519
 37 39 1 0 0
SMALL
USER_CHARGES


@<TRIPOS>ATOM
      1 C1        -13.7581    5.3843   62.0365 C.3     1  ZINC000002873519   -0.1500
      2 C2        -12.7293    4.5350   62.7375 C.2     1  ZINC000002873519    0.4500
      3 O3        -12.7379    4.4471   63.9425 O.2     1  ZINC000002873519   -0.4800
      4 O4        -11.8030    3.8758   62.0228 O.3     1  ZINC000002873519   -0.2900
      5 C5        -10.8989    3.1385   62.7166 C.ar    1  ZINC000002873519    0.1200
      6 C6         -9.7949    3.7490   63.2878 C.ar    1  ZINC000002873519   -0.1100
      7 C7         -8.8747    2.9983   63.9948 C.ar    1  ZINC000002873519   -0.0800
      8 C8         -9.0460    1.6296   64.1395 C.ar    1  ZINC000002873519   -0.0400
      9 Cl9        -7.8802    0.7027   65.0313 Cl      1  ZINC000002873519   -0.0500
     10 C10       -10.1376    1.0020   63.5791 C.ar    1  ZINC000002873519   -0.0800
     11 C11       -11.0819    1.7514   62.8639 C.ar    1  ZINC000002873519   -0.0700
     12 C12       -12.2444    1.0939   62.2656 C.2     1  ZINC000002873519    0.0400
     13 C13       -12.0665    0.0927   61.3309 C.2     1  ZINC000002873519   -0.1900
     14 C14       -10.7964   -0.4502   60.8188 C.2     1  ZINC000002873519   -0.2000
     15 C15       -11.1222   -1.4086   59.9261 C.2     1  ZINC000002873519    0.1200
     16 C16       -10.1406   -2.2131   59.1718 C.ar    1  ZINC000002873519   -0.0400
     17 C17        -8.8212   -2.3105   59.6199 C.ar    1  ZINC000002873519   -0.0800
     18 C18        -7.9092   -3.0635   58.9107 C.ar    1  ZINC000002873519   -0.1100
     19 C19        -8.2989   -3.7220   57.7564 C.ar    1  ZINC000002873519   -0.0200
     20 Cl20       -7.1446   -4.6679   56.8694 Cl      1  ZINC000002873519   -0.0600
     21 C21        -9.6056   -3.6295   57.3068 C.ar    1  ZINC000002873519   -0.1100
     22 C22       -10.5289   -2.8848   58.0102 C.ar    1  ZINC000002873519   -0.0800
     23 O23       -12.4594   -1.5373   59.8123 O.3     1  ZINC000002873519   -0.2600
     24 C24       -13.1050   -0.6803   60.6235 C.2     1  ZINC000002873519    0.5200
     25 O25       -14.3099   -0.5602   60.7438 O.2     1  ZINC000002873519   -0.4200
     26 H26       -13.3793    6.4009   61.9312 H       1  ZINC000002873519    0.1100
     27 H27       -13.9615    4.9683   61.0499 H       1  ZINC000002873519    0.1000
     28 H28       -14.6777    5.3979   62.6217 H       1  ZINC000002873519    0.1100
     29 H29        -9.6526    4.8142   63.1804 H       1  ZINC000002873519    0.1500
     30 H30        -8.0158    3.4808   64.4373 H       1  ZINC000002873519    0.1500
     31 H31       -10.2670   -0.0641   63.6937 H       1  ZINC000002873519    0.1500
     32 H32       -13.2415    1.3914   62.5550 H       1  ZINC000002873519    0.1500
     33 H33        -9.8007   -0.1417   61.1013 H       1  ZINC000002873519    0.1700
     34 H34        -8.5159   -1.7969   60.5196 H       1  ZINC000002873519    0.1400
     35 H35        -6.8887   -3.1396   59.2561 H       1  ZINC000002873519    0.1400
     36 H36        -9.9031   -4.1451   56.4057 H       1  ZINC000002873519    0.1400
     37 H37       -11.5475   -2.8134   57.6586 H       1  ZINC000002873519    0.1400
@<TRIPOS>BOND
     1     1     2    1
     2     1    26    1
     3     1    27    1
     4     1    28    1
     5     2     3    2
     6     2     4    1
     7     4     5    1
     8     5    11   ar
     9     5     6   ar
    10     6     7   ar
    11     6    29    1
    12     7     8   ar
    13     7    30    1
    14     8     9    1
    15     8    10   ar
    16    10    11   ar
    17    10    31    1
    18    11    12    1
    19    12    13    2
    20    12    32    1
    21    13    24    1
    22    13    14    1
    23    14    15    2
    24    14    33    1
    25    15    16    1
    26    15    23    1
    27    16    22   ar
    28    16    17   ar
    29    17    18   ar
    30    17    34    1
    31    18    19   ar
    32    18    35    1
    33    19    20    1
    34    19    21   ar
    35    21    22   ar
    36    21    36    1
    37    22    37    1
    38    23    24    1
    39    24    25    2
@<TRIPOS>SUBSTRUCTURE
     1 ZINC000002873519        1 TEMP              0 ****  ****    0 ROOT


##########                                Name:    ZINC001087843226
##########                DOCK_Rotatable_Bonds:                   6
##########                         Heavy_Atoms:                  27
##########                    Molecular_Weight:             368.479
##########                DOCK_Rotatable_Bonds:                   6
##########                       Formal_Charge:        -4.47035e-07
##########                     HBond_Acceptors:                   6
##########                        HBond_Donors:                   1
##########                         Heavy_Atoms:                  27
##########                          Grid_Score:          -26.635342
##########                     Grid_vdw_energy:          -24.603510
##########                      Grid_es_energy:           -2.031833
##########           Internal_energy_repulsive:           28.787498

@<TRIPOS>MOLECULE
ZINC001087843226
 55 58 1 0 0
SMALL
USER_CHARGES


@<TRIPOS>ATOM
      1 C1        -10.2536    3.9287   60.6653 C.3     1  ZINC001087843226   -0.1500
      2 C2         -9.9705    4.4051   62.0913 C.3     1  ZINC001087843226   -0.1500
      3 C3         -9.2772    3.2882   62.8742 C.3     1  ZINC001087843226    0.0700
      4 H4         -8.3808    2.9657   62.3445 H       1  ZINC001087843226    0.1000
      5 C5        -10.2402    2.0953   63.0510 C.3     1  ZINC001087843226    0.1300
      6 H6        -11.2770    2.4218   62.9702 H       1  ZINC001087843226    0.1000
      7 N7         -9.9514    1.0465   62.0698 N.am    1  ZINC001087843226   -0.7200
      8 C8        -10.8896    0.1262   61.7711 C.2     1  ZINC001087843226    0.5600
      9 O9        -11.9749    0.1654   62.3171 O.2     1  ZINC001087843226   -0.5300
     10 C10       -10.5987   -0.9312   60.7796 C.ar    1  ZINC001087843226   -0.1400
     11 C11        -9.3078   -1.4464   60.6668 C.ar    1  ZINC001087843226   -0.0800
     12 C12        -9.0426   -2.4331   59.7395 C.ar    1  ZINC001087843226   -0.1300
     13 C13       -10.0533   -2.9089   58.9256 C.ar    1  ZINC001087843226   -0.0400
     14 C14        -9.7547   -3.9869   57.9157 C.3     1  ZINC001087843226   -0.1200
     15 C15       -11.3399   -2.4027   59.0312 C.ar    1  ZINC001087843226   -0.1100
     16 C16       -11.6188   -1.4197   59.9577 C.ar    1  ZINC001087843226   -0.0300
     17 C17       -13.0810   -1.0374   59.8764 C.3     1  ZINC001087843226   -0.0800
     18 C18       -13.5637   -1.5761   58.5128 C.3     1  ZINC001087843226   -0.1200
     19 C19       -12.5969   -2.7554   58.2646 C.3     1  ZINC001087843226   -0.0800
     20 C20        -9.9297    1.6060   64.4901 C.3     1  ZINC001087843226   -0.1400
     21 C21        -9.6385    2.9416   65.2187 C.3     1  ZINC001087843226    0.0400
     22 N22        -8.9186    3.7679   64.2214 N.3     1  ZINC001087843226   -0.5100
     23 C23        -9.2495    5.1905   64.3790 C.3     1  ZINC001087843226    0.1100
     24 C24        -8.8558    5.6478   65.7599 C.2     1  ZINC001087843226    0.0800
     25 N25        -9.6213    5.6120   66.8096 N.2     1  ZINC001087843226   -0.2700
     26 O26        -8.8735    6.1301   67.8982 O.3     1  ZINC001087843226    0.0300
     27 N27        -7.5972    6.4715   67.3808 N.2     1  ZINC001087843226   -0.2800
     28 C28        -7.5986    6.1752   66.1155 C.2     1  ZINC001087843226    0.0900
     29 C29        -6.4397    6.3747   65.1731 C.3     1  ZINC001087843226   -0.0900
     30 H30       -10.8083    4.6982   60.1285 H       1  ZINC001087843226    0.0600
     31 H31        -9.3110    3.7360   60.1528 H       1  ZINC001087843226    0.0600
     32 H32       -10.8429    3.0123   60.6985 H       1  ZINC001087843226    0.0600
     33 H33        -9.3239    5.2821   62.0599 H       1  ZINC001087843226    0.0800
     34 H34       -10.9094    4.6633   62.5812 H       1  ZINC001087843226    0.0700
     35 H35        -9.0848    1.0145   61.6350 H       1  ZINC001087843226    0.4000
     36 H36        -8.5182   -1.0742   61.3027 H       1  ZINC001087843226    0.1300
     37 H37        -8.0438   -2.8339   59.6493 H       1  ZINC001087843226    0.1300
     38 H38        -9.9082   -4.9648   58.3720 H       1  ZINC001087843226    0.0800
     39 H39       -10.4202   -3.8770   57.0595 H       1  ZINC001087843226    0.0700
     40 H40        -8.7198   -3.8986   57.5853 H       1  ZINC001087843226    0.0700
     41 H41       -13.6399   -1.5049   60.6871 H       1  ZINC001087843226    0.0800
     42 H42       -13.1914    0.0463   59.9156 H       1  ZINC001087843226    0.0900
     43 H43       -14.5931   -1.9286   58.5777 H       1  ZINC001087843226    0.0800
     44 H44       -13.4610   -0.8167   57.7377 H       1  ZINC001087843226    0.0700
     45 H45       -12.3746   -2.8448   57.2012 H       1  ZINC001087843226    0.0800
     46 H46       -13.0276   -3.6832   58.6410 H       1  ZINC001087843226    0.0800
     47 H47       -10.7930    1.1033   64.9263 H       1  ZINC001087843226    0.0800
     48 H48        -9.0547    0.9562   64.5012 H       1  ZINC001087843226    0.0800
     49 H49       -10.5705    3.4248   65.5122 H       1  ZINC001087843226    0.0600
     50 H50        -9.0088    2.7682   66.0914 H       1  ZINC001087843226    0.0800
     51 H51        -8.7077    5.7741   63.6348 H       1  ZINC001087843226    0.1200
     52 H52       -10.3215    5.3315   64.2414 H       1  ZINC001087843226    0.0700
     53 H53        -5.8718    5.4476   65.0943 H       1  ZINC001087843226    0.1000
     54 H54        -6.8157    6.6551   64.1892 H       1  ZINC001087843226    0.0900
     55 H55        -5.7935    7.1654   65.5541 H       1  ZINC001087843226    0.0900
@<TRIPOS>BOND
     1     1     2    1
     2     1    30    1
     3     1    31    1
     4     1    32    1
     5     2     3    1
     6     2    33    1
     7     2    34    1
     8     3     4    1
     9     3    22    1
    10     3     5    1
    11     5     6    1
    12     5     7    1
    13     5    20    1
    14     7     8   am
    15     7    35    1
    16     8     9    2
    17     8    10    1
    18    10    16   ar
    19    10    11   ar
    20    11    12   ar
    21    11    36    1
    22    12    13   ar
    23    12    37    1
    24    13    14    1
    25    13    15   ar
    26    14    38    1
    27    14    39    1
    28    14    40    1
    29    15    19    1
    30    15    16   ar
    31    16    17    1
    32    17    18    1
    33    17    41    1
    34    17    42    1
    35    18    19    1
    36    18    43    1
    37    18    44    1
    38    19    45    1
    39    19    46    1
    40    20    21    1
    41    20    47    1
    42    20    48    1
    43    21    22    1
    44    21    49    1
    45    21    50    1
    46    22    23    1
    47    23    24    1
    48    23    51    1
    49    23    52    1
    50    24    28    1
    51    24    25    2
    52    25    26    1
    53    26    27    1
    54    27    28    2
    55    28    29    1
    56    29    53    1
    57    29    54    1
    58    29    55    1
@<TRIPOS>SUBSTRUCTURE
     1 ZINC001087843226        1 TEMP              0 ****  ****    0 ROOT


##########                                Name:    ZINC000151991096
##########                DOCK_Rotatable_Bonds:                   8
##########                         Heavy_Atoms:                  27
##########                    Molecular_Weight:             364.444
##########                DOCK_Rotatable_Bonds:                   8
##########                       Formal_Charge:          -0.0200004
##########                     HBond_Acceptors:                   5
##########                        HBond_Donors:                   1
##########                         Heavy_Atoms:                  27
##########                          Grid_Score:          -26.592045
##########                     Grid_vdw_energy:          -24.899218
##########                      Grid_es_energy:           -1.692826
##########           Internal_energy_repulsive:           16.448719

@<TRIPOS>MOLECULE
ZINC000151991096
 51 53 1 0 0
SMALL
USER_CHARGES


@<TRIPOS>ATOM
      1 C1         -5.6557    4.2530   53.2415 C.3     1  ZINC000151991096   -0.1500
      2 C2         -6.6880    3.6149   54.1734 C.3     1  ZINC000151991096   -0.1300
      3 C3         -7.5298    4.7114   54.8290 C.3     1  ZINC000151991096    0.1400
      4 H4         -6.8733    5.4225   55.3307 H       1  ZINC000151991096    0.1000
      5 N5         -8.4377    4.1099   55.8088 N.am    1  ZINC000151991096   -0.7200
      6 C6         -7.9907    3.8037   57.0428 C.2     1  ZINC000151991096    0.5600
      7 O7         -6.8333    4.0253   57.3424 O.2     1  ZINC000151991096   -0.5300
      8 C8         -8.9060    3.1992   58.0305 C.ar    1  ZINC000151991096   -0.1700
      9 C9        -10.1667    2.7470   57.6322 C.ar    1  ZINC000151991096   -0.0500
     10 C10       -11.0175    2.1832   58.5565 C.ar    1  ZINC000151991096   -0.1600
     11 C11       -10.6238    2.0638   59.8843 C.ar    1  ZINC000151991096    0.1600
     12 O12       -11.4650    1.5073   60.7922 O.3     1  ZINC000151991096   -0.3000
     13 C13       -10.9671    0.3985   61.5437 C.3     1  ZINC000151991096    0.0900
     14 C14       -10.7636   -0.7794   60.6261 C.ar    1  ZINC000151991096   -0.0500
     15 C15        -9.4885   -1.1646   60.2680 C.ar    1  ZINC000151991096   -0.1000
     16 C16        -9.2999   -2.2460   59.4254 C.ar    1  ZINC000151991096   -0.0900
     17 C17       -10.3871   -2.9477   58.9361 C.ar    1  ZINC000151991096   -0.1200
     18 C18       -11.6680   -2.5732   59.2861 C.ar    1  ZINC000151991096   -0.0700
     19 C19       -11.8654   -1.4870   60.1407 C.ar    1  ZINC000151991096   -0.0200
     20 C20       -13.1922   -1.0928   60.5083 C.1     1  ZINC000151991096    0.2400
     21 N21       -14.2446   -0.7801   60.7998 N.1     1  ZINC000151991096   -0.4000
     22 C22        -9.3706    2.5125   60.2844 C.ar    1  ZINC000151991096   -0.2200
     23 C23        -8.5119    3.0726   59.3651 C.ar    1  ZINC000151991096   -0.0100
     24 C24        -8.3447    5.4382   53.7573 C.3     1  ZINC000151991096    0.0700
     25 H25        -7.6740    5.9014   53.0337 H       1  ZINC000151991096    0.1000
     26 C26        -9.2310    6.5174   54.4155 C.3     1  ZINC000151991096   -0.1500
     27 C27       -10.5478    6.4049   53.5999 C.3     1  ZINC000151991096   -0.1600
     28 C28       -10.5831    4.8839   53.3066 C.3     1  ZINC000151991096    0.0500
     29 O29        -9.2105    4.5105   53.0929 O.3     1  ZINC000151991096   -0.3700
     30 H30        -5.0072    4.9143   53.8162 H       1  ZINC000151991096    0.0500
     31 H31        -5.0561    3.4718   52.7744 H       1  ZINC000151991096    0.0500
     32 H32        -6.1686    4.8274   52.4701 H       1  ZINC000151991096    0.0600
     33 H33        -7.3366    2.9537   53.5987 H       1  ZINC000151991096    0.0700
     34 H34        -6.1751    3.0404   54.9447 H       1  ZINC000151991096    0.0700
     35 H35        -9.3608    3.9320   55.5693 H       1  ZINC000151991096    0.4000
     36 H36       -10.4735    2.8397   56.6009 H       1  ZINC000151991096    0.1300
     37 H37       -11.9923    1.8338   58.2497 H       1  ZINC000151991096    0.1400
     38 H38       -10.0168    0.6690   62.0039 H       1  ZINC000151991096    0.0800
     39 H39       -11.6848    0.1344   62.3203 H       1  ZINC000151991096    0.0800
     40 H40        -8.6354   -0.6207   60.6459 H       1  ZINC000151991096    0.1400
     41 H41        -8.2993   -2.5433   59.1483 H       1  ZINC000151991096    0.1400
     42 H42       -10.2327   -3.7902   58.2783 H       1  ZINC000151991096    0.1400
     43 H43       -12.5160   -3.1217   58.9030 H       1  ZINC000151991096    0.1400
     44 H44        -9.0685    2.4183   61.3170 H       1  ZINC000151991096    0.1300
     45 H45        -7.5382    3.4207   59.6767 H       1  ZINC000151991096    0.1400
     46 H46        -9.4050    6.2882   55.4668 H       1  ZINC000151991096    0.0800
     47 H47        -8.7873    7.5065   54.3012 H       1  ZINC000151991096    0.0900
     48 H48       -11.4071    6.7098   54.1971 H       1  ZINC000151991096    0.0800
     49 H49       -10.4888    6.9817   52.6769 H       1  ZINC000151991096    0.0800
     50 H50       -10.9946    4.3436   54.1591 H       1  ZINC000151991096    0.0600
     51 H51       -11.1721    4.6847   52.4113 H       1  ZINC000151991096    0.0900
@<TRIPOS>BOND
     1     1     2    1
     2     1    30    1
     3     1    31    1
     4     1    32    1
     5     2     3    1
     6     2    33    1
     7     2    34    1
     8     3     4    1
     9     3     5    1
    10     3    24    1
    11     5     6   am
    12     5    35    1
    13     6     7    2
    14     6     8    1
    15     8    23   ar
    16     8     9   ar
    17     9    10   ar
    18     9    36    1
    19    10    11   ar
    20    10    37    1
    21    11    12    1
    22    11    22   ar
    23    12    13    1
    24    13    14    1
    25    13    38    1
    26    13    39    1
    27    14    19   ar
    28    14    15   ar
    29    15    16   ar
    30    15    40    1
    31    16    17   ar
    32    16    41    1
    33    17    18   ar
    34    17    42    1
    35    18    19   ar
    36    18    43    1
    37    19    20    1
    38    20    21    3
    39    22    23   ar
    40    22    44    1
    41    23    45    1
    42    24    25    1
    43    24    29    1
    44    24    26    1
    45    26    27    1
    46    26    46    1
    47    26    47    1
    48    27    28    1
    49    27    48    1
    50    27    49    1
    51    28    29    1
    52    28    50    1
    53    28    51    1
@<TRIPOS>SUBSTRUCTURE
     1 ZINC000151991096        1 TEMP              0 ****  ****    0 ROOT


##########                                Name:    ZINC000929592477
##########                DOCK_Rotatable_Bonds:                   7
##########                         Heavy_Atoms:                  28
##########                    Molecular_Weight:             399.517
##########                DOCK_Rotatable_Bonds:                   7
##########                       Formal_Charge:         -8.9407e-08
##########                     HBond_Acceptors:                   8
##########                        HBond_Donors:                   3
##########                         Heavy_Atoms:                  28
##########                          Grid_Score:          -26.544342
##########                     Grid_vdw_energy:          -24.614861
##########                      Grid_es_energy:           -1.929481
##########           Internal_energy_repulsive:          118.889244

@<TRIPOS>MOLECULE
ZINC000929592477
 53 56 1 0 0
SMALL
USER_CHARGES


@<TRIPOS>ATOM
      1 O1        -13.5811   -1.5196   56.4148 O.2     1  ZINC000929592477   -0.5700
      2 C2        -14.6890   -1.7654   55.9780 C.2     1  ZINC000929592477    0.7100
      3 N3        -15.0789   -1.2439   54.7979 N.am    1  ZINC000929592477   -0.6800
      4 C4        -14.2094   -0.4136   54.0768 C.ar    1  ZINC000929592477    0.1600
      5 C5        -13.9223   -0.6963   52.7481 C.ar    1  ZINC000929592477   -0.1300
      6 C6        -13.0658    0.1207   52.0377 C.ar    1  ZINC000929592477   -0.0800
      7 C7        -12.4914    1.2264   52.6525 C.ar    1  ZINC000929592477   -0.1000
      8 S8        -11.3987    2.2701   51.7463 S.3     1  ZINC000929592477   -0.1100
      9 C9        -10.9349    3.5314   52.9646 C.3     1  ZINC000929592477   -0.0800
     10 C10       -10.0644    4.6291   52.3040 C.3     1  ZINC000929592477   -0.1200
     11 C11       -10.2794    5.8449   53.2393 C.3     1  ZINC000929592477   -0.1200
     12 C12       -11.7676    5.7585   53.6359 C.3     1  ZINC000929592477   -0.1200
     13 C13       -12.1845    4.2876   53.4614 C.3     1  ZINC000929592477   -0.1000
     14 C14       -12.7794    1.5093   53.9820 C.ar    1  ZINC000929592477   -0.1200
     15 C15       -13.6401    0.6946   54.6900 C.ar    1  ZINC000929592477   -0.1000
     16 N16       -15.5249   -2.5636   56.6712 N.am    1  ZINC000929592477   -0.7300
     17 C17       -15.1010   -3.1304   57.9539 C.3     1  ZINC000929592477    0.1500
     18 H18       -15.6485   -4.0481   58.1682 H       1  ZINC000929592477    0.1200
     19 C19       -15.2883   -2.0995   59.0983 C.3     1  ZINC000929592477   -0.1400
     20 C20       -13.9969   -1.2537   58.9693 C.3     1  ZINC000929592477    0.1100
     21 N21       -12.9466   -2.2217   58.6046 N.pl3   1  ZINC000929592477   -0.6000
     22 C22       -11.5943   -2.0639   58.8293 C.2     1  ZINC000929592477    0.4600
     23 C23       -11.0918   -0.8353   59.2244 C.2     1  ZINC000929592477   -0.4000
     24 C24        -9.7122   -0.7173   59.4422 C.2     1  ZINC000929592477    0.5300
     25 O25        -9.2263    0.3468   59.7916 O.2     1  ZINC000929592477   -0.5500
     26 N26        -8.9312   -1.8024   59.2585 N.am    1  ZINC000929592477   -0.6400
     27 C27        -9.4748   -2.9741   58.8729 C.2     1  ZINC000929592477    0.4100
     28 N28       -10.7575   -3.1015   58.6716 N.2     1  ZINC000929592477   -0.5700
     29 C29       -13.5794   -3.3881   57.9607 C.3     1  ZINC000929592477    0.1100
     30 H30       -15.9612   -1.4432   54.4475 H       1  ZINC000929592477    0.4100
     31 H31       -14.3687   -1.5559   52.2704 H       1  ZINC000929592477    0.1300
     32 H32       -12.8419   -0.0997   51.0045 H       1  ZINC000929592477    0.1300
     33 H33       -10.4069    3.0757   53.8022 H       1  ZINC000929592477    0.1000
     34 H34        -9.0153    4.3334   52.2896 H       1  ZINC000929592477    0.0700
     35 H35       -10.4186    4.8491   51.2969 H       1  ZINC000929592477    0.0800
     36 H36        -9.6441    5.7645   54.1215 H       1  ZINC000929592477    0.0700
     37 H37       -10.0796    6.7752   52.7076 H       1  ZINC000929592477    0.0700
     38 H38       -11.8953    6.0619   54.6751 H       1  ZINC000929592477    0.0700
     39 H39       -12.3653    6.3958   52.9843 H       1  ZINC000929592477    0.0700
     40 H40       -12.9844    4.2111   52.7249 H       1  ZINC000929592477    0.0700
     41 H41       -12.5144    3.8772   54.4157 H       1  ZINC000929592477    0.0800
     42 H42       -12.3332    2.3687   54.4602 H       1  ZINC000929592477    0.1300
     43 H43       -13.8643    0.9145   55.7233 H       1  ZINC000929592477    0.1400
     44 H44       -16.4072   -2.7627   56.3209 H       1  ZINC000929592477    0.4000
     45 H45       -16.1746   -1.4873   58.9314 H       1  ZINC000929592477    0.0900
     46 H46       -15.3351   -2.5959   60.0674 H       1  ZINC000929592477    0.0900
     47 H47       -14.1108   -0.5043   58.1861 H       1  ZINC000929592477    0.0700
     48 H48       -13.7594   -0.7766   59.9202 H       1  ZINC000929592477    0.0800
     49 H49       -11.7474    0.0119   59.3612 H       1  ZINC000929592477    0.1500
     50 H50        -7.9743   -1.7388   59.4043 H       1  ZINC000929592477    0.4200
     51 H51        -8.8324   -3.8306   58.7311 H       1  ZINC000929592477    0.2100
     52 H52       -13.3564   -4.2913   58.5287 H       1  ZINC000929592477    0.0900
     53 H53       -13.2147   -3.4907   56.9388 H       1  ZINC000929592477    0.0800
@<TRIPOS>BOND
     1     1     2    2
     2     2     3   am
     3     2    16   am
     4     3     4    1
     5     3    30    1
     6     4    15   ar
     7     4     5   ar
     8     5     6   ar
     9     5    31    1
    10     6     7   ar
    11     6    32    1
    12     7     8    1
    13     7    14   ar
    14     8     9    1
    15     9    13    1
    16     9    10    1
    17     9    33    1
    18    10    11    1
    19    10    34    1
    20    10    35    1
    21    11    12    1
    22    11    36    1
    23    11    37    1
    24    12    13    1
    25    12    38    1
    26    12    39    1
    27    13    40    1
    28    13    41    1
    29    14    15   ar
    30    14    42    1
    31    15    43    1
    32    16    17    1
    33    16    44    1
    34    17    18    1
    35    17    29    1
    36    17    19    1
    37    19    20    1
    38    19    45    1
    39    19    46    1
    40    20    21    1
    41    20    47    1
    42    20    48    1
    43    21    22    1
    44    21    29    1
    45    22    28    1
    46    22    23    2
    47    23    24    1
    48    23    49    1
    49    24    25    2
    50    24    26   am
    51    26    27    1
    52    26    50    1
    53    27    28    2
    54    27    51    1
    55    29    52    1
    56    29    53    1
@<TRIPOS>SUBSTRUCTURE
     1 ZINC000929592477        1 TEMP              0 ****  ****    0 ROOT


##########                                Name:    ZINC000194290865
##########                DOCK_Rotatable_Bonds:                   7
##########                         Heavy_Atoms:                  28
##########                    Molecular_Weight:             387.479
##########                DOCK_Rotatable_Bonds:                   7
##########                       Formal_Charge:          -0.0400003
##########                     HBond_Acceptors:                   7
##########                        HBond_Donors:                   0
##########                         Heavy_Atoms:                  28
##########                          Grid_Score:          -26.532490
##########                     Grid_vdw_energy:          -26.721462
##########                      Grid_es_energy:            0.188973
##########           Internal_energy_repulsive:           41.279202

@<TRIPOS>MOLECULE
ZINC000194290865
 57 59 1 0 0
SMALL
USER_CHARGES


@<TRIPOS>ATOM
      1 C1        -11.9273    3.1701   54.8382 C.3     1  ZINC000194290865   -0.1500
      2 C2        -10.4474    3.5419   54.9500 C.3     1  ZINC000194290865    0.0600
      3 O3         -9.9965    3.3289   56.3137 O.3     1  ZINC000194290865   -0.3600
      4 C4        -10.3329    4.2607   57.2193 C.2     1  ZINC000194290865    0.4700
      5 O5        -10.7359    5.3399   56.8547 O.2     1  ZINC000194290865   -0.4900
      6 C6        -10.2079    3.9611   58.6910 C.3     1  ZINC000194290865   -0.0600
      7 C7         -8.8357    4.3987   59.2069 C.3     1  ZINC000194290865   -0.0700
      8 C8         -8.6873    3.9881   60.6733 C.3     1  ZINC000194290865   -0.1700
      9 C9         -7.7405    3.7273   58.3760 C.3     1  ZINC000194290865   -0.1600
     10 C10       -11.3323    4.6701   59.4808 C.3     1  ZINC000194290865   -0.1200
     11 C11       -12.3947    3.5541   59.6441 C.3     1  ZINC000194290865    0.0900
     12 N12       -11.5785    2.3371   59.8595 N.am    1  ZINC000194290865   -0.6100
     13 C13       -11.8390    1.3252   60.7108 C.2     1  ZINC000194290865    0.5800
     14 O14       -12.8364    1.3562   61.4045 O.2     1  ZINC000194290865   -0.5000
     15 C15       -10.9102    0.1763   60.8009 C.ar    1  ZINC000194290865    0.0100
     16 C16       -10.0095    0.0517   61.8760 C.ar    1  ZINC000194290865   -0.2200
     17 C17        -9.1443   -1.0551   61.9232 C.ar    1  ZINC000194290865    0.3000
     18 N18        -9.1814   -1.9669   60.9637 N.ar    1  ZINC000194290865   -0.4700
     19 C19       -10.0122   -1.8768   59.9471 C.ar    1  ZINC000194290865    0.2100
     20 C20       -10.0001   -2.9518   58.8911 C.3     1  ZINC000194290865   -0.1100
     21 C21       -10.9021   -0.8217   59.8266 C.ar    1  ZINC000194290865   -0.1800
     22 O22        -8.4024   -0.9240   63.0414 O.3     1  ZINC000194290865   -0.0800
     23 N23        -8.7787    0.2576   63.7193 N.2     1  ZINC000194290865   -0.2600
     24 C24        -9.7231    0.8583   63.0617 C.2     1  ZINC000194290865    0.1600
     25 C25       -10.3989    2.1486   63.4484 C.3     1  ZINC000194290865   -0.0400
     26 C26       -11.5928    1.8468   64.3563 C.3     1  ZINC000194290865   -0.1500
     27 C27        -9.4047    3.0418   64.1932 C.3     1  ZINC000194290865   -0.1400
     28 C28       -10.4230    2.4585   58.9510 C.3     1  ZINC000194290865    0.1200
     29 H29       -12.0597    2.1217   55.1051 H       1  ZINC000194290865    0.0700
     30 H30       -12.5107    3.7940   55.5155 H       1  ZINC000194290865    0.0700
     31 H31       -12.2658    3.3301   53.8145 H       1  ZINC000194290865    0.0800
     32 H32        -9.8640    2.9180   54.2728 H       1  ZINC000194290865    0.0700
     33 H33       -10.3150    4.5903   54.6832 H       1  ZINC000194290865    0.0700
     34 H34        -8.7439    5.4815   59.1217 H       1  ZINC000194290865    0.0900
     35 H35        -9.4675    4.4665   61.2653 H       1  ZINC000194290865    0.0500
     36 H36        -8.7791    2.9052   60.7584 H       1  ZINC000194290865    0.0800
     37 H37        -7.7097    4.2999   61.0409 H       1  ZINC000194290865    0.0600
     38 H38        -7.8461    4.0198   57.3313 H       1  ZINC000194290865    0.0500
     39 H39        -6.7628    4.0390   58.7434 H       1  ZINC000194290865    0.0600
     40 H40        -7.8323    2.6444   58.4610 H       1  ZINC000194290865    0.0800
     41 H41       -10.9699    5.0033   60.4533 H       1  ZINC000194290865    0.0900
     42 H42       -11.7359    5.5068   58.9106 H       1  ZINC000194290865    0.0900
     43 H43       -13.0287    3.7502   60.5088 H       1  ZINC000194290865    0.0900
     44 H44       -12.9952    3.4594   58.7393 H       1  ZINC000194290865    0.0900
     45 H45       -10.7021   -3.7390   59.1660 H       1  ZINC000194290865    0.0900
     46 H46       -10.2921   -2.5229   57.9326 H       1  ZINC000194290865    0.0900
     47 H47        -8.9971   -3.3712   58.8111 H       1  ZINC000194290865    0.0900
     48 H48       -11.5754   -0.7683   58.9839 H       1  ZINC000194290865    0.1600
     49 H49       -10.7455    2.6605   62.5506 H       1  ZINC000194290865    0.1100
     50 H50       -11.2463    1.3349   65.2541 H       1  ZINC000194290865    0.0700
     51 H51       -12.0816    2.7800   64.6361 H       1  ZINC000194290865    0.0700
     52 H52       -12.3011    1.2105   63.8258 H       1  ZINC000194290865    0.0600
     53 H53        -8.5542    3.2568   63.5462 H       1  ZINC000194290865    0.0600
     54 H54        -9.8936    3.9750   64.4728 H       1  ZINC000194290865    0.0700
     55 H55        -9.0582    2.5299   65.0909 H       1  ZINC000194290865    0.0600
     56 H56       -10.6331    1.9456   58.0126 H       1  ZINC000194290865    0.0800
     57 H57        -9.5360    2.0321   59.4197 H       1  ZINC000194290865    0.1000
@<TRIPOS>BOND
     1     1     2    1
     2     1    29    1
     3     1    30    1
     4     1    31    1
     5     2     3    1
     6     2    32    1
     7     2    33    1
     8     3     4    1
     9     4     5    2
    10     4     6    1
    11     6    28    1
    12     6     7    1
    13     6    10    1
    14     7     8    1
    15     7     9    1
    16     7    34    1
    17     8    35    1
    18     8    36    1
    19     8    37    1
    20     9    38    1
    21     9    39    1
    22     9    40    1
    23    10    11    1
    24    10    41    1
    25    10    42    1
    26    11    12    1
    27    11    43    1
    28    11    44    1
    29    12    13   am
    30    12    28    1
    31    13    14    2
    32    13    15    1
    33    15    21   ar
    34    15    16   ar
    35    16    24    1
    36    16    17   ar
    37    17    18   ar
    38    17    22    1
    39    18    19   ar
    40    19    20    1
    41    19    21   ar
    42    20    45    1
    43    20    46    1
    44    20    47    1
    45    21    48    1
    46    22    23    1
    47    23    24    2
    48    24    25    1
    49    25    26    1
    50    25    27    1
    51    25    49    1
    52    26    50    1
    53    26    51    1
    54    26    52    1
    55    27    53    1
    56    27    54    1
    57    27    55    1
    58    28    56    1
    59    28    57    1
@<TRIPOS>SUBSTRUCTURE
     1 ZINC000194290865        1 TEMP              0 ****  ****    0 ROOT


##########                                Name:    ZINC000274225049
##########                DOCK_Rotatable_Bonds:                   6
##########                         Heavy_Atoms:                  25
##########                    Molecular_Weight:             380.895
##########                DOCK_Rotatable_Bonds:                   6
##########                       Formal_Charge:           0.0200006
##########                     HBond_Acceptors:                   7
##########                        HBond_Donors:                   2
##########                         Heavy_Atoms:                  25
##########                          Grid_Score:          -26.510296
##########                     Grid_vdw_energy:          -27.066978
##########                      Grid_es_energy:            0.556683
##########           Internal_energy_repulsive:           12.701680

@<TRIPOS>MOLECULE
ZINC000274225049
 46 48 1 0 0
SMALL
USER_CHARGES


@<TRIPOS>ATOM
      1 C1        -14.8668   -3.7829   58.0737 C.3     1  ZINC000274225049   -0.1600
      2 C2        -14.1988   -2.4752   57.6440 C.3     1  ZINC000274225049    0.2000
      3 H3        -14.7214   -1.6337   58.0988 H       1  ZINC000274225049    0.1100
      4 N4        -14.2552   -2.3544   56.1852 N.am    1  ZINC000274225049   -0.7400
      5 C5        -14.4117   -1.1433   55.6148 C.2     1  ZINC000274225049    0.7100
      6 O6        -14.5047   -0.1510   56.3111 O.2     1  ZINC000274225049   -0.5800
      7 N7        -14.4652   -1.0323   54.2727 N.am    1  ZINC000274225049   -0.7500
      8 C8        -14.6337    0.2842   53.6527 C.3     1  ZINC000274225049    0.1500
      9 C9        -14.1163    0.2401   52.2135 C.3     1  ZINC000274225049   -0.1000
     10 H10       -13.1224   -0.2065   52.1879 H       1  ZINC000274225049    0.1000
     11 C11       -14.0707    1.6616   51.6261 C.3     1  ZINC000274225049   -0.1100
     12 C12       -13.8803    1.5600   50.0996 C.3     1  ZINC000274225049   -0.5900
     13 S13       -14.6256   -0.0440   49.6327 S.o2    1  ZINC000274225049    2.3900
     14 O14       -15.8034    0.1876   48.8723 O.2     1  ZINC000274225049   -0.9300
     15 O15       -13.6138   -0.9037   49.1263 O.2     1  ZINC000274225049   -0.9300
     16 C16       -15.0887   -0.5773   51.3244 C.3     1  ZINC000274225049   -0.5900
     17 C17       -12.7602   -2.4749   58.0930 C.ar    1  ZINC000274225049   -0.0700
     18 C18       -12.3815   -1.7715   59.2488 C.ar    1  ZINC000274225049   -0.0300
     19 C19       -13.3229   -1.0570   60.0095 C.ar    1  ZINC000274225049   -0.1100
     20 C20       -12.9197   -0.3876   61.1236 C.ar    1  ZINC000274225049   -0.1100
     21 C21       -11.5846   -0.3988   61.5238 C.ar    1  ZINC000274225049   -0.1100
     22 C22       -10.6454   -1.0797   60.8120 C.ar    1  ZINC000274225049   -0.1000
     23 C23       -11.0239   -1.7829   59.6558 C.ar    1  ZINC000274225049   -0.0400
     24 C24       -10.0824   -2.4982   58.8950 C.ar    1  ZINC000274225049   -0.0300
     25 Cl25       -8.4140   -2.5275   59.3740 Cl      1  ZINC000274225049   -0.0600
     26 C26       -10.4868   -3.1686   57.7799 C.ar    1  ZINC000274225049   -0.1000
     27 C27       -11.8222   -3.1609   57.3836 C.ar    1  ZINC000274225049   -0.1000
     28 H28       -15.9073   -3.7831   57.7491 H       1  ZINC000274225049    0.0700
     29 H29       -14.3441   -4.6244   57.6189 H       1  ZINC000274225049    0.0700
     30 H30       -14.8248   -3.8728   59.1592 H       1  ZINC000274225049    0.0800
     31 H31       -14.1798   -3.1460   55.6296 H       1  ZINC000274225049    0.4000
     32 H32       -14.3923   -1.8243   53.7173 H       1  ZINC000274225049    0.4000
     33 H33       -15.6902    0.5525   53.6510 H       1  ZINC000274225049    0.0800
     34 H34       -14.0711    1.0268   54.2184 H       1  ZINC000274225049    0.0800
     35 H35       -15.0047    2.1789   51.8453 H       1  ZINC000274225049    0.0900
     36 H36       -13.2377    2.2122   52.0634 H       1  ZINC000274225049    0.0900
     37 H37       -14.3978    2.3779   49.5983 H       1  ZINC000274225049    0.1400
     38 H38       -12.8197    1.5717   49.8488 H       1  ZINC000274225049    0.1400
     39 H39       -14.9241   -1.6472   51.4515 H       1  ZINC000274225049    0.1400
     40 H40       -16.1241   -0.3155   51.5428 H       1  ZINC000274225049    0.1400
     41 H41       -14.3608   -1.0392   59.7113 H       1  ZINC000274225049    0.1300
     42 H42       -13.6450    0.1610   61.7062 H       1  ZINC000274225049    0.1300
     43 H43       -11.2910    0.1412   62.4118 H       1  ZINC000274225049    0.1300
     44 H44        -9.6145   -1.0791   61.1340 H       1  ZINC000274225049    0.1300
     45 H45        -9.7619   -3.7170   57.1967 H       1  ZINC000274225049    0.1300
     46 H46       -12.1165   -3.7004   56.4956 H       1  ZINC000274225049    0.1300
@<TRIPOS>BOND
     1     1     2    1
     2     1    28    1
     3     1    29    1
     4     1    30    1
     5     2     3    1
     6     2     4    1
     7     2    17    1
     8     4     5   am
     9     4    31    1
    10     5     6    2
    11     5     7   am
    12     7     8    1
    13     7    32    1
    14     8     9    1
    15     8    33    1
    16     8    34    1
    17     9    10    1
    18     9    16    1
    19     9    11    1
    20    11    12    1
    21    11    35    1
    22    11    36    1
    23    12    13    1
    24    12    37    1
    25    12    38    1
    26    13    14    2
    27    13    15    2
    28    13    16    1
    29    16    39    1
    30    16    40    1
    31    17    27   ar
    32    17    18   ar
    33    18    23   ar
    34    18    19   ar
    35    19    20   ar
    36    19    41    1
    37    20    21   ar
    38    20    42    1
    39    21    22   ar
    40    21    43    1
    41    22    23   ar
    42    22    44    1
    43    23    24   ar
    44    24    25    1
    45    24    26   ar
    46    26    27   ar
    47    26    45    1
    48    27    46    1
@<TRIPOS>SUBSTRUCTURE
     1 ZINC000274225049        1 TEMP              0 ****  ****    0 ROOT


##########                                Name:    ZINC000826052721
##########                DOCK_Rotatable_Bonds:                   3
##########                         Heavy_Atoms:                  29
##########                    Molecular_Weight:             393.399
##########                DOCK_Rotatable_Bonds:                   3
##########                       Formal_Charge:        -4.47035e-07
##########                     HBond_Acceptors:                   9
##########                        HBond_Donors:                   2
##########                         Heavy_Atoms:                  29
##########                          Grid_Score:          -26.502209
##########                     Grid_vdw_energy:          -23.625240
##########                      Grid_es_energy:           -2.876969
##########           Internal_energy_repulsive:           11.741869

@<TRIPOS>MOLECULE
ZINC000826052721
 46 50 1 0 0
SMALL
USER_CHARGES


@<TRIPOS>ATOM
      1 C1         -8.7532   -1.2864   62.0508 C.3     1  ZINC000826052721   -0.0400
      2 N2         -9.5059   -1.8516   60.9231 N.4     1  ZINC000826052721   -0.3800
      3 H3        -10.0672   -2.6255   61.2457 H       1  ZINC000826052721    0.4300
      4 C4         -8.5718   -2.3184   59.8946 C.3     1  ZINC000826052721    0.0500
      5 C5         -9.3179   -2.7664   58.6656 C.ar    1  ZINC000826052721   -0.1300
      6 C6         -8.6667   -3.5865   57.7569 C.ar    1  ZINC000826052721   -0.1000
      7 C7         -9.3138   -4.0142   56.6146 C.ar    1  ZINC000826052721   -0.1000
      8 C8        -10.6176   -3.6235   56.3743 C.ar    1  ZINC000826052721   -0.0800
      9 C9        -11.2684   -2.8079   57.2790 C.ar    1  ZINC000826052721   -0.0800
     10 C10       -10.6198   -2.3793   58.4262 C.ar    1  ZINC000826052721   -0.1200
     11 C11       -11.3659   -1.4927   59.3904 C.3     1  ZINC000826052721    0.1100
     12 H12       -12.0701   -2.0944   59.9652 H       1  ZINC000826052721    0.1100
     13 N13       -12.1000   -0.4647   58.6407 N.3     1  ZINC000826052721   -0.6200
     14 C14       -12.9371    0.2534   59.4744 C.ar    1  ZINC000826052721    0.1600
     15 C15       -14.1898   -0.2468   59.8460 C.ar    1  ZINC000826052721   -0.0400
     16 C16       -14.6446   -1.5621   59.3502 C.2     1  ZINC000826052721    0.0700
     17 N17       -15.2294   -2.5268   60.0644 N.2     1  ZINC000826052721   -0.3800
     18 N18       -15.4722   -3.5078   59.2639 N.2     1  ZINC000826052721   -0.1600
     19 N19       -15.0582   -3.2060   58.0834 N.2     1  ZINC000826052721   -0.1700
     20 N20       -14.5465   -2.0228   58.1008 N.pl3   1  ZINC000826052721   -0.3400
     21 C21       -15.0074    0.5102   60.6973 C.ar    1  ZINC000826052721    0.1800
     22 N22       -14.6327    1.6810   61.1479 N.ar    1  ZINC000826052721   -0.4700
     23 C23       -13.4484    2.2184   60.8259 C.ar    1  ZINC000826052721    0.0900
     24 C24       -13.0717    3.4794   61.3229 C.ar    1  ZINC000826052721    0.1700
     25 F25       -13.9055    4.1639   62.1361 F       1  ZINC000826052721   -0.1100
     26 C26       -11.8616    4.0081   60.9822 C.ar    1  ZINC000826052721   -0.1900
     27 C27       -10.9872    3.3179   60.1446 C.ar    1  ZINC000826052721    0.1300
     28 F28        -9.7955    3.8678   59.8244 F       1  ZINC000826052721   -0.1300
     29 C29       -11.3213    2.0928   59.6439 C.ar    1  ZINC000826052721   -0.1500
     30 C30       -12.5577    1.5211   59.9755 C.ar    1  ZINC000826052721   -0.0600
     31 C31       -10.3773   -0.8188   60.3429 C.3     1  ZINC000826052721    0.0000
     32 H32        -8.1500   -0.4483   61.7015 H       1  ZINC000826052721    0.1200
     33 H33        -9.4491   -0.9397   62.8149 H       1  ZINC000826052721    0.1300
     34 H34        -8.1020   -2.0517   62.4730 H       1  ZINC000826052721    0.1200
     35 H35        -7.9924   -3.1538   60.2877 H       1  ZINC000826052721    0.1400
     36 H36        -7.8952   -1.5064   59.6283 H       1  ZINC000826052721    0.1400
     37 H37        -7.6480   -3.8927   57.9437 H       1  ZINC000826052721    0.1300
     38 H38        -8.8021   -4.6531   55.9102 H       1  ZINC000826052721    0.1300
     39 H39       -11.1264   -3.9557   55.4814 H       1  ZINC000826052721    0.1300
     40 H40       -12.2874   -2.5032   57.0919 H       1  ZINC000826052721    0.1400
     41 H41       -12.6155   -0.8738   57.8760 H       1  ZINC000826052721    0.4100
     42 H42       -15.9722    0.1195   60.9851 H       1  ZINC000826052721    0.1800
     43 H43       -11.5769    4.9763   61.3666 H       1  ZINC000826052721    0.1600
     44 H44       -10.6367    1.5666   58.9951 H       1  ZINC000826052721    0.1400
     45 H45        -9.7740   -0.0965   59.7930 H       1  ZINC000826052721    0.1400
     46 H46       -10.9234   -0.3127   61.1390 H       1  ZINC000826052721    0.1400
@<TRIPOS>BOND
     1     1     2    1
     2     1    32    1
     3     1    33    1
     4     1    34    1
     5     2     3    1
     6     2    31    1
     7     2     4    1
     8     4     5    1
     9     4    35    1
    10     4    36    1
    11     5    10   ar
    12     5     6   ar
    13     6     7   ar
    14     6    37    1
    15     7     8   ar
    16     7    38    1
    17     8     9   ar
    18     8    39    1
    19     9    10   ar
    20     9    40    1
    21    10    11    1
    22    11    12    1
    23    11    13    1
    24    11    31    1
    25    13    14    1
    26    13    41    1
    27    14    30   ar
    28    14    15   ar
    29    15    16    1
    30    15    21   ar
    31    16    20    1
    32    16    17    2
    33    17    18    1
    34    18    19    2
    35    19    20    1
    36    21    22   ar
    37    21    42    1
    38    22    23   ar
    39    23    30   ar
    40    23    24   ar
    41    24    25    1
    42    24    26   ar
    43    26    27   ar
    44    26    43    1
    45    27    28    1
    46    27    29   ar
    47    29    30   ar
    48    29    44    1
    49    31    45    1
    50    31    46    1
@<TRIPOS>SUBSTRUCTURE
     1 ZINC000826052721        1 TEMP              0 ****  ****    0 ROOT


##########                                Name:    ZINC000836820897
##########                DOCK_Rotatable_Bonds:                   5
##########                         Heavy_Atoms:                  22
##########                    Molecular_Weight:             330.355
##########                DOCK_Rotatable_Bonds:                   5
##########                       Formal_Charge:          -0.0200003
##########                     HBond_Acceptors:                   8
##########                        HBond_Donors:                   1
##########                         Heavy_Atoms:                  22
##########                          Grid_Score:          -26.498304
##########                     Grid_vdw_energy:          -24.195148
##########                      Grid_es_energy:           -2.303156
##########           Internal_energy_repulsive:           11.687107

@<TRIPOS>MOLECULE
ZINC000836820897
 38 40 1 0 0
SMALL
USER_CHARGES


@<TRIPOS>ATOM
      1 O1        -10.9602    2.2590   61.1546 O.2     1  ZINC000836820897   -0.5200
      2 C2        -10.4367    1.2827   61.6553 C.2     1  ZINC000836820897    0.5800
      3 C3        -10.4669   -0.0149   60.9500 C.ar    1  ZINC000836820897   -0.1600
      4 C4         -9.2826   -0.7216   60.7319 C.ar    1  ZINC000836820897   -0.0100
      5 C5         -9.3167   -1.9324   60.0736 C.ar    1  ZINC000836820897   -0.1700
      6 C6        -10.5238   -2.4485   59.6283 C.ar    1  ZINC000836820897    0.2200
      7 F7        -10.5515   -3.6355   58.9837 F       1  ZINC000836820897   -0.1100
      8 C8        -11.7031   -1.7510   59.8427 C.ar    1  ZINC000836820897   -0.7200
      9 S9        -13.2331   -2.4148   59.2744 S.o2    1  ZINC000836820897    2.7000
     10 O10       -12.9101   -3.3562   58.2602 O.2     1  ZINC000836820897   -0.9400
     11 O11       -13.9814   -2.7491   60.4352 O.2     1  ZINC000836820897   -0.9400
     12 N12       -14.0534   -1.1855   58.5272 N.am    1  ZINC000836820897   -1.0800
     13 C13       -13.4660   -0.5126   57.3660 C.3     1  ZINC000836820897    0.0700
     14 C14       -13.4868   -1.2599   56.0311 C.3     1  ZINC000836820897   -0.1800
     15 C15       -14.4162   -0.0651   56.2534 C.3     1  ZINC000836820897   -0.1900
     16 C16       -11.6811   -0.5420   60.5040 C.ar    1  ZINC000836820897    0.0600
     17 N17        -9.8238    1.3855   62.8513 N.am    1  ZINC000836820897   -0.6200
     18 C18        -9.7250    2.6086   63.6611 C.3     1  ZINC000836820897    0.0900
     19 C19        -8.9648    2.2423   64.9533 C.3     1  ZINC000836820897   -0.1600
     20 C20        -9.1727    0.7081   65.0557 C.3     1  ZINC000836820897    0.0800
     21 H21       -10.1364    0.4737   65.5076 H       1  ZINC000836820897    0.1100
     22 F22        -8.1288    0.1071   65.7672 F       1  ZINC000836820897   -0.1900
     23 C23        -9.1470    0.2887   63.5670 C.3     1  ZINC000836820897    0.0800
     24 H24        -8.3416   -0.3202   61.0780 H       1  ZINC000836820897    0.1500
     25 H25        -8.4011   -2.4797   59.9040 H       1  ZINC000836820897    0.1600
     26 H26       -14.9229   -0.9110   58.8584 H       1  ZINC000836820897    0.4200
     27 H27       -12.6035    0.1198   57.5757 H       1  ZINC000836820897    0.1400
     28 H28       -12.6376   -1.1194   55.3624 H       1  ZINC000836820897    0.1100
     29 H29       -13.9375   -2.2523   56.0169 H       1  ZINC000836820897    0.1000
     30 H30       -15.4784   -0.2713   56.3854 H       1  ZINC000836820897    0.1000
     31 H31       -14.1785    0.8616   55.7310 H       1  ZINC000836820897    0.1000
     32 H32       -12.6000    0.0003   60.6706 H       1  ZINC000836820897    0.1600
     33 H33        -9.1757    3.3734   63.1121 H       1  ZINC000836820897    0.0800
     34 H34       -10.7228    2.9713   63.9081 H       1  ZINC000836820897    0.0800
     35 H35        -7.9059    2.4826   64.8590 H       1  ZINC000836820897    0.0900
     36 H36        -9.4012    2.7488   65.8142 H       1  ZINC000836820897    0.1000
     37 H37        -9.6853   -0.6488   63.4276 H       1  ZINC000836820897    0.1000
     38 H38        -8.1190    0.1924   63.2177 H       1  ZINC000836820897    0.0900
@<TRIPOS>BOND
     1     1     2    2
     2     2     3    1
     3     2    17   am
     4     3    16   ar
     5     3     4   ar
     6     4     5   ar
     7     4    24    1
     8     5     6   ar
     9     5    25    1
    10     6     7    1
    11     6     8   ar
    12     8     9    1
    13     8    16   ar
    14     9    10    2
    15     9    11    2
    16     9    12   am
    17    12    13    1
    18    12    26    1
    19    13    15    1
    20    13    14    1
    21    13    27    1
    22    14    15    1
    23    14    28    1
    24    14    29    1
    25    15    30    1
    26    15    31    1
    27    16    32    1
    28    17    23    1
    29    17    18    1
    30    18    19    1
    31    18    33    1
    32    18    34    1
    33    19    20    1
    34    19    35    1
    35    19    36    1
    36    20    21    1
    37    20    22    1
    38    20    23    1
    39    23    37    1
    40    23    38    1
@<TRIPOS>SUBSTRUCTURE
     1 ZINC000836820897        1 TEMP              0 ****  ****    0 ROOT


##########                                Name:    ZINC000277311370
##########                DOCK_Rotatable_Bonds:                   5
##########                         Heavy_Atoms:                  17
##########                    Molecular_Weight:             361.036
##########                DOCK_Rotatable_Bonds:                   5
##########                       Formal_Charge:        -7.45058e-08
##########                     HBond_Acceptors:                   4
##########                        HBond_Donors:                   1
##########                         Heavy_Atoms:                  17
##########                          Grid_Score:          -26.470661
##########                     Grid_vdw_energy:          -26.467854
##########                      Grid_es_energy:           -0.002807
##########           Internal_energy_repulsive:            7.339068

@<TRIPOS>MOLECULE
ZINC000277311370
 28 28 1 0 0
SMALL
USER_CHARGES


@<TRIPOS>ATOM
      1 C1         -7.9047   -0.3434   64.9659 C.3     1  ZINC000277311370   -0.1500
      2 C2         -8.9585    0.7582   65.0960 C.3     1  ZINC000277311370   -0.1000
      3 C3         -8.4038    1.8956   65.9561 C.3     1  ZINC000277311370   -0.1600
      4 C4         -9.3100    1.2941   63.7067 C.3     1  ZINC000277311370    0.2500
      5 H5         -8.4600    1.8449   63.3039 H       1  ZINC000277311370    0.1400
      6 C6        -10.4731    2.1909   63.8065 C.1     1  ZINC000277311370    0.1900
      7 N7        -11.3706    2.8829   63.8835 N.1     1  ZINC000277311370   -0.4100
      8 N8         -9.6315    0.1743   62.8184 N.am    1  ZINC000277311370   -0.7000
      9 C9         -9.8134    0.3903   61.5005 C.2     1  ZINC000277311370    0.5700
     10 O10        -9.7091    1.5137   61.0489 O.2     1  ZINC000277311370   -0.4900
     11 C11       -10.1401   -0.7413   60.6029 C.ar    1  ZINC000277311370    0.1100
     12 N12        -9.1648   -1.5028   60.1218 N.ar    1  ZINC000277311370   -0.4300
     13 C13        -9.4124   -2.5179   59.3220 C.ar    1  ZINC000277311370    0.1300
     14 Br14       -7.9775   -3.5636   58.6711 Br      1  ZINC000277311370    0.0200
     15 C15       -10.7113   -2.8316   58.9500 C.ar    1  ZINC000277311370   -0.1100
     16 C16       -11.7595   -2.0630   59.4291 C.ar    1  ZINC000277311370   -0.0400
     17 C17       -11.4695   -1.0018   60.2746 C.ar    1  ZINC000277311370   -0.0900
     18 Br18      -12.8571    0.0841   60.9613 Br      1  ZINC000277311370    0.0300
     19 H19        -7.6542   -0.7252   65.9557 H       1  ZINC000277311370    0.0700
     20 H20        -8.2999   -1.1536   64.3532 H       1  ZINC000277311370    0.0700
     21 H21        -7.0094    0.0638   64.4963 H       1  ZINC000277311370    0.0600
     22 H22        -9.8538    0.3510   65.5657 H       1  ZINC000277311370    0.1000
     23 H23        -7.5084    2.3028   65.4864 H       1  ZINC000277311370    0.0600
     24 H24        -9.1544    2.6805   66.0486 H       1  ZINC000277311370    0.0600
     25 H25        -8.1533    1.5138   66.9458 H       1  ZINC000277311370    0.0700
     26 H26        -9.7135   -0.7225   63.1787 H       1  ZINC000277311370    0.4200
     27 H27       -10.9036   -3.6668   58.2930 H       1  ZINC000277311370    0.1600
     28 H28       -12.7795   -2.2871   59.1539 H       1  ZINC000277311370    0.1700
@<TRIPOS>BOND
     1     1     2    1
     2     1    19    1
     3     1    20    1
     4     1    21    1
     5     2     3    1
     6     2     4    1
     7     2    22    1
     8     3    23    1
     9     3    24    1
    10     3    25    1
    11     4     5    1
    12     4     6    1
    13     4     8    1
    14     6     7    3
    15     8     9   am
    16     8    26    1
    17     9    10    2
    18     9    11    1
    19    11    17   ar
    20    11    12   ar
    21    12    13   ar
    22    13    14    1
    23    13    15   ar
    24    15    16   ar
    25    15    27    1
    26    16    17   ar
    27    16    28    1
    28    17    18    1
@<TRIPOS>SUBSTRUCTURE
     1 ZINC000277311370        1 TEMP              0 ****  ****    0 ROOT


##########                                Name:    ZINC000502834785
##########                DOCK_Rotatable_Bonds:                   9
##########                         Heavy_Atoms:                  26
##########                    Molecular_Weight:             356.468
##########                DOCK_Rotatable_Bonds:                   9
##########                       Formal_Charge:           0.0199998
##########                     HBond_Acceptors:                   6
##########                        HBond_Donors:                   2
##########                         Heavy_Atoms:                  26
##########                          Grid_Score:          -26.443596
##########                     Grid_vdw_energy:          -24.027138
##########                      Grid_es_energy:           -2.416459
##########           Internal_energy_repulsive:           97.148354

@<TRIPOS>MOLECULE
ZINC000502834785
 54 56 1 0 0
SMALL
USER_CHARGES


@<TRIPOS>ATOM
      1 C1         -7.4243   -4.0461   55.7200 C.3     1  ZINC000502834785   -0.1800
      2 C2         -7.1391   -4.1765   57.2176 C.3     1  ZINC000502834785    0.0800
      3 C3         -5.6642   -3.8695   57.4845 C.3     1  ZINC000502834785   -0.1500
      4 O4         -7.9562   -3.2532   57.9402 O.3     1  ZINC000502834785   -0.3800
      5 C5         -9.3536   -3.5467   57.8845 C.3     1  ZINC000502834785    0.1000
      6 C6        -10.0980   -2.6253   58.8161 C.ar    1  ZINC000502834785   -0.0800
      7 C7         -9.4240   -1.9847   59.8390 C.ar    1  ZINC000502834785   -0.1000
      8 C8        -10.1068   -1.1396   60.6936 C.ar    1  ZINC000502834785   -0.1000
      9 C9        -11.4635   -0.9347   60.5250 C.ar    1  ZINC000502834785   -0.1000
     10 C10       -12.2079   -0.0136   61.4571 C.3     1  ZINC000502834785    0.1600
     11 N11       -12.0983    1.3645   60.9724 N.am    1  ZINC000502834785   -0.7300
     12 C12       -12.9259    2.3147   61.4503 C.2     1  ZINC000502834785    0.5100
     13 O13       -13.7605    2.0293   62.2827 O.2     1  ZINC000502834785   -0.5200
     14 C14       -12.8143    3.7320   60.9504 C.3     1  ZINC000502834785    0.0300
     15 N15       -12.9465    3.7470   59.4874 N.3     1  ZINC000502834785   -0.5000
     16 C16       -13.7604    2.6058   59.0172 C.3     1  ZINC000502834785    0.0500
     17 C17       -13.1490    2.2218   57.6468 C.3     1  ZINC000502834785   -0.1300
     18 C18       -11.6364    2.4524   57.9029 C.3     1  ZINC000502834785   -0.1300
     19 C19       -11.6251    3.6809   58.8367 C.3     1  ZINC000502834785    0.1500
     20 H20       -11.4521    4.5868   58.2556 H       1  ZINC000502834785    0.1100
     21 C21       -10.5453    3.5249   59.8762 C.2     1  ZINC000502834785    0.0600
     22 N22        -9.9384    2.4092   60.1905 N.2     1  ZINC000502834785   -0.2900
     23 N23        -9.0047    2.6873   61.1971 N.pl3   1  ZINC000502834785   -0.4800
     24 C24        -9.0733    4.0062   61.4742 C.2     1  ZINC000502834785    0.0600
     25 C25       -10.0144    4.5488   60.6674 C.2     1  ZINC000502834785   -0.2600
     26 C26       -12.1371   -1.5742   59.5014 C.ar    1  ZINC000502834785   -0.1000
     27 C27       -11.4536   -2.4164   58.6444 C.ar    1  ZINC000502834785   -0.1000
     28 H28        -8.4751   -4.2647   55.5299 H       1  ZINC000502834785    0.0600
     29 H29        -7.1999   -3.0303   55.3945 H       1  ZINC000502834785    0.0600
     30 H30        -6.8011   -4.7503   55.1688 H       1  ZINC000502834785    0.0700
     31 H31        -7.3635   -5.1922   57.5431 H       1  ZINC000502834785    0.0600
     32 H32        -5.4398   -2.8537   57.1590 H       1  ZINC000502834785    0.0600
     33 H33        -5.4610   -3.9625   58.5513 H       1  ZINC000502834785    0.0600
     34 H34        -5.0410   -4.5737   56.9333 H       1  ZINC000502834785    0.0700
     35 H35        -9.7147   -3.4029   56.8661 H       1  ZINC000502834785    0.0600
     36 H36        -9.5201   -4.5808   58.1863 H       1  ZINC000502834785    0.0600
     37 H37        -8.3641   -2.1448   59.9707 H       1  ZINC000502834785    0.1300
     38 H38        -9.5804   -0.6396   61.4932 H       1  ZINC000502834785    0.1300
     39 H39       -13.2580   -0.3038   61.4925 H       1  ZINC000502834785    0.0800
     40 H40       -11.7779   -0.0827   62.4562 H       1  ZINC000502834785    0.0800
     41 H41       -11.4299    1.5931   60.3075 H       1  ZINC000502834785    0.4000
     42 H42       -13.6057    4.3369   61.3929 H       1  ZINC000502834785    0.1000
     43 H43       -11.8439    4.1411   61.2316 H       1  ZINC000502834785    0.0800
     44 H44       -13.6828    1.7717   59.7145 H       1  ZINC000502834785    0.0400
     45 H45       -14.8015    2.9059   58.8976 H       1  ZINC000502834785    0.1000
     46 H46       -13.3499    1.1773   57.4084 H       1  ZINC000502834785    0.0800
     47 H47       -13.5158    2.8783   56.8577 H       1  ZINC000502834785    0.0800
     48 H48       -11.1931    1.5881   58.3976 H       1  ZINC000502834785    0.0800
     49 H49       -11.1167    2.6724   56.9703 H       1  ZINC000502834785    0.0800
     50 H50        -8.4132    2.0453   61.6200 H       1  ZINC000502834785    0.4400
     51 H51        -8.4803    4.5347   62.2058 H       1  ZINC000502834785    0.1800
     52 H52       -10.3082    5.5878   60.6431 H       1  ZINC000502834785    0.1500
     53 H53       -13.1970   -1.4138   59.3694 H       1  ZINC000502834785    0.1300
     54 H54       -11.9799   -2.9160   57.8446 H       1  ZINC000502834785    0.1200
@<TRIPOS>BOND
     1     1     2    1
     2     1    28    1
     3     1    29    1
     4     1    30    1
     5     2     3    1
     6     2     4    1
     7     2    31    1
     8     3    32    1
     9     3    33    1
    10     3    34    1
    11     4     5    1
    12     5     6    1
    13     5    35    1
    14     5    36    1
    15     6    27   ar
    16     6     7   ar
    17     7     8   ar
    18     7    37    1
    19     8     9   ar
    20     8    38    1
    21     9    10    1
    22     9    26   ar
    23    10    11    1
    24    10    39    1
    25    10    40    1
    26    11    12   am
    27    11    41    1
    28    12    13    2
    29    12    14    1
    30    14    15    1
    31    14    42    1
    32    14    43    1
    33    15    19    1
    34    15    16    1
    35    16    17    1
    36    16    44    1
    37    16    45    1
    38    17    18    1
    39    17    46    1
    40    17    47    1
    41    18    19    1
    42    18    48    1
    43    18    49    1
    44    19    20    1
    45    19    21    1
    46    21    25    1
    47    21    22    2
    48    22    23    1
    49    23    24    1
    50    23    50    1
    51    24    25    2
    52    24    51    1
    53    25    52    1
    54    26    27   ar
    55    26    53    1
    56    27    54    1
@<TRIPOS>SUBSTRUCTURE
     1 ZINC000502834785        1 TEMP              0 ****  ****    0 ROOT


##########                                Name:      oleObject5.pdb
##########                DOCK_Rotatable_Bonds:                   5
##########                         Heavy_Atoms:                  24
##########                    Molecular_Weight:             323.438
##########                DOCK_Rotatable_Bonds:                   5
##########                       Formal_Charge:         0.000200074
##########                     HBond_Acceptors:                   4
##########                        HBond_Donors:                   2
##########                         Heavy_Atoms:                  24
##########                          Grid_Score:          -26.436689
##########                     Grid_vdw_energy:          -26.011192
##########                      Grid_es_energy:           -0.425497
##########           Internal_energy_repulsive:           11.460224

@<TRIPOS>MOLECULE
oleObject5.pdb
 49 51 1 0 0
SMALL
NO_CHARGES


@<TRIPOS>ATOM
      1 C         -13.0163    2.8740   61.0677 C.3     1  UNL        -0.0394
      2 C         -11.6956    2.6895   60.3266 C.ar    1  UNL        -0.0456
      3 C         -11.3362    3.6590   59.3697 C.ar    1  UNL        -0.0590
      4 C         -10.1472    3.5405   58.6363 C.ar    1  UNL        -0.0620
      5 C          -9.3049    2.4428   58.8497 C.ar    1  UNL        -0.0619
      6 C          -9.6527    1.4698   59.7975 C.ar    1  UNL        -0.0565
      7 C         -10.8403    1.5792   60.5519 C.ar    1  UNL        -0.0188
      8 C         -11.1747    0.4633   61.5511 C.3     1  UNL         0.0906
      9 N         -11.4813   -0.7765   60.8158 N.am    1  UNL        -0.3025
     10 C         -12.7342   -1.0583   60.3020 C.2     1  UNL         0.2156
     11 O         -13.6260   -0.2275   60.2792 O.2     1  UNL        -0.2774
     12 C         -12.8202   -2.4122   59.5720 C.3     1  UNL         0.0382
     13 C         -12.4886   -2.2671   58.0625 C.3     1  UNL        -0.0292
     14 C         -13.6432   -1.5984   57.2849 C.3     1  UNL        -0.0041
     15 N         -14.8980   -2.3480   57.4677 N.4     1  UNL        -0.3167
     16 C         -15.3086   -2.4664   58.8782 C.3     1  UNL        -0.0041
     17 C         -14.1976   -3.1089   59.7464 C.3     1  UNL        -0.0292
     18 C         -10.0612    0.2790   62.5965 C.ar    1  UNL         0.0681
     19 N          -9.1607   -0.7049   62.3558 N.ar    1  UNL        -0.2587
     20 C          -8.1567   -0.9103   63.2288 C.ar    1  UNL         0.0272
     21 C          -7.9947   -0.1407   64.3900 C.ar    1  UNL        -0.0435
     22 C          -8.9154    0.8842   64.6498 C.ar    1  UNL        -0.0559
     23 C          -9.9696    1.1069   63.7436 C.ar    1  UNL        -0.0272
     24 C         -10.9650    2.2264   64.0211 C.3     1  UNL        -0.0379
     25 H         -13.4609    3.8555   60.8613 H       1  UNL         0.0280
     26 H         -12.8883    2.8069   62.1538 H       1  UNL         0.0280
     27 H         -13.7490    2.1199   60.7609 H       1  UNL         0.0280
     28 H         -11.9857    4.5106   59.1870 H       1  UNL         0.0626
     29 H          -9.8835    4.2949   57.9006 H       1  UNL         0.0623
     30 H          -8.3859    2.3425   58.2791 H       1  UNL         0.0623
     31 H          -8.9930    0.6191   59.9395 H       1  UNL         0.0627
     32 H         -12.0786    0.7290   62.1072 H       1  UNL         0.0624
     33 H         -10.6948   -1.2207   60.3604 H       1  UNL         0.1504
     34 H         -12.0577   -3.0571   60.0280 H       1  UNL         0.0402
     35 H         -12.3085   -3.2634   57.6386 H       1  UNL         0.0288
     36 H         -11.5628   -1.6966   57.9177 H       1  UNL         0.0288
     37 H         -13.3886   -1.5567   56.2184 H       1  UNL         0.0428
     38 H         -13.7717   -0.5671   57.6388 H       1  UNL         0.0428
     39 H         -14.7815   -3.2830   57.0785 H       1  UNL         0.1222
     40 H         -16.2198   -3.0738   58.9473 H       1  UNL         0.0428
     41 H         -15.5496   -1.4702   59.2695 H       1  UNL         0.0428
     42 H         -14.0978   -4.1631   59.4574 H       1  UNL         0.0288
     43 H         -14.4959   -3.1017   60.8027 H       1  UNL         0.0288
     44 H          -7.4627   -1.7151   62.9896 H       1  UNL         0.0840
     45 H          -7.1722   -0.3341   65.0722 H       1  UNL         0.0639
     46 H          -8.8095    1.4963   65.5411 H       1  UNL         0.0627
     47 H         -10.7290    2.7551   64.9531 H       1  UNL         0.0280
     48 H         -11.9845    1.8340   64.1193 H       1  UNL         0.0280
     49 H         -10.9571    2.9700   63.2150 H       1  UNL         0.0280
@<TRIPOS>BOND
     1     1     2    1
     2     1    25    1
     3     1    26    1
     4     1    27    1
     5     2     3   ar
     6     2     7   ar
     7     3     4   ar
     8     3    28    1
     9     4     5   ar
    10     4    29    1
    11     5     6   ar
    12     5    30    1
    13     6     7   ar
    14     6    31    1
    15     7     8    1
    16     8     9    1
    17     8    18    1
    18     8    32    1
    19     9    10   am
    20     9    33    1
    21    10    11    2
    22    10    12    1
    23    12    13    1
    24    12    17    1
    25    12    34    1
    26    13    14    1
    27    13    35    1
    28    13    36    1
    29    14    15    1
    30    14    37    1
    31    14    38    1
    32    15    16    1
    33    15    39    1
    34    16    17    1
    35    16    40    1
    36    16    41    1
    37    17    42    1
    38    17    43    1
    39    18    19   ar
    40    18    23   ar
    41    19    20   ar
    42    20    21   ar
    43    20    44    1
    44    21    22   ar
    45    21    45    1
    46    22    23   ar
    47    22    46    1
    48    23    24    1
    49    24    47    1
    50    24    48    1
    51    24    49    1
@<TRIPOS>SUBSTRUCTURE
     1 UNL         1 TEMP              0 ****  ****    0 ROOT


##########                                Name:    ZINC001053433946
##########                DOCK_Rotatable_Bonds:                   6
##########                         Heavy_Atoms:                  24
##########                    Molecular_Weight:             337.419
##########                DOCK_Rotatable_Bonds:                   6
##########                       Formal_Charge:               -0.02
##########                     HBond_Acceptors:                   7
##########                        HBond_Donors:                   2
##########                         Heavy_Atoms:                  24
##########                          Grid_Score:          -26.398201
##########                     Grid_vdw_energy:          -25.339628
##########                      Grid_es_energy:           -1.058572
##########           Internal_energy_repulsive:           15.423395

@<TRIPOS>MOLECULE
ZINC001053433946
 51 54 1 0 0
SMALL
USER_CHARGES


@<TRIPOS>ATOM
      1 N1         -8.9759    2.3228   65.2354 N.am    1  ZINC001053433946   -0.8300
      2 C2         -9.0111    3.5200   64.6175 C.2     1  ZINC001053433946    0.5600
      3 O3         -7.9774    4.0702   64.3016 O.2     1  ZINC001053433946   -0.5500
      4 C4        -10.3350    4.1752   64.3188 C.3     1  ZINC001053433946   -0.1600
      5 H5        -10.2878    5.2316   64.0547 H       1  ZINC001053433946    0.1400
      6 C6        -11.5537    3.6990   65.1118 C.3     1  ZINC001053433946   -0.1300
      7 C7        -11.4064    3.3234   63.6352 C.3     1  ZINC001053433946   -0.1700
      8 H8        -12.0644    3.8194   62.9217 H       1  ZINC001053433946    0.1400
      9 C9        -11.0580    1.8932   63.3124 C.2     1  ZINC001053433946    0.5400
     10 O10       -11.4702    0.9951   64.0155 O.2     1  ZINC001053433946   -0.5200
     11 N11       -10.2882    1.6122   62.2423 N.am    1  ZINC001053433946   -0.6100
     12 C12        -9.7757    2.6834   61.3737 C.3     1  ZINC001053433946    0.0700
     13 C13       -10.1371    2.3544   59.9215 C.3     1  ZINC001053433946    0.0500
     14 O14        -9.6595    1.0444   59.5993 O.3     1  ZINC001053433946   -0.3400
     15 C15       -10.2056    0.0119   60.4155 C.3     1  ZINC001053433946    0.0800
     16 C16       -11.6719   -0.3142   60.1015 C.3     1  ZINC001053433946   -0.0100
     17 N17       -11.1385   -1.3232   59.1586 N.3     1  ZINC001053433946   -0.4700
     18 C18       -11.8923   -2.5807   59.2512 C.3     1  ZINC001053433946    0.0200
     19 C19       -13.2444   -2.4173   58.5540 C.3     1  ZINC001053433946   -0.1200
     20 H20       -13.6394   -1.4213   58.7542 H       1  ZINC001053433946    0.0800
     21 C21       -13.0676   -2.6038   57.0440 C.3     1  ZINC001053433946   -0.1200
     22 C22       -14.4382   -2.5154   56.3658 C.3     1  ZINC001053433946   -0.1600
     23 C23       -15.3694   -3.5663   56.9758 C.3     1  ZINC001053433946    0.0600
     24 O24       -15.4656   -3.3544   58.3859 O.3     1  ZINC001053433946   -0.3800
     25 C25       -14.2223   -3.4709   59.0807 C.3     1  ZINC001053433946    0.0700
     26 C26        -9.8751   -1.4043   59.9261 C.3     1  ZINC001053433946    0.0200
     27 C27        -9.9284    0.2229   61.9088 C.3     1  ZINC001053433946    0.1000
     28 H28        -8.1236    1.9018   65.4287 H       1  ZINC001053433946    0.4000
     29 H29        -9.8025    1.8842   65.4906 H       1  ZINC001053433946    0.4000
     30 H30       -11.3979    2.9119   65.8496 H       1  ZINC001053433946    0.1100
     31 H31       -12.3084    4.4422   65.3691 H       1  ZINC001053433946    0.1200
     32 H32       -10.2300    3.6328   61.6573 H       1  ZINC001053433946    0.1000
     33 H33        -8.6924    2.7492   61.4750 H       1  ZINC001053433946    0.0800
     34 H34       -11.2198    2.3869   59.7998 H       1  ZINC001053433946    0.0600
     35 H35        -9.6740    3.0840   59.2572 H       1  ZINC001053433946    0.1100
     36 H36       -12.2167   -0.7431   60.9425 H       1  ZINC001053433946    0.0800
     37 H37       -12.2091    0.5006   59.6159 H       1  ZINC001053433946    0.0900
     38 H38       -11.3285   -3.3787   58.7680 H       1  ZINC001053433946    0.0500
     39 H39       -12.0521   -2.8320   60.2997 H       1  ZINC001053433946    0.0800
     40 H40       -12.4166   -1.8215   56.6537 H       1  ZINC001053433946    0.0700
     41 H41       -12.6254   -3.5803   56.8465 H       1  ZINC001053433946    0.0700
     42 H42       -14.8584   -1.5218   56.5216 H       1  ZINC001053433946    0.0700
     43 H43       -14.3287   -2.7021   55.2974 H       1  ZINC001053433946    0.0700
     44 H44       -16.3589   -3.4795   56.5269 H       1  ZINC001053433946    0.0900
     45 H45       -14.9692   -4.5618   56.7843 H       1  ZINC001053433946    0.0500
     46 H46       -13.8061   -4.4649   58.9172 H       1  ZINC001053433946    0.0500
     47 H47       -14.3860   -3.3160   60.1472 H       1  ZINC001053433946    0.1000
     48 H48        -8.9836   -1.4565   59.3012 H       1  ZINC001053433946    0.1000
     49 H49        -9.8877   -2.1561   60.7153 H       1  ZINC001053433946    0.0900
     50 H50        -8.8721    0.0499   62.1153 H       1  ZINC001053433946    0.0800
     51 H51       -10.5366   -0.4643   62.4970 H       1  ZINC001053433946    0.1000
@<TRIPOS>BOND
     1     1     2   am
     2     1    28    1
     3     1    29    1
     4     2     3    2
     5     2     4    1
     6     4     5    1
     7     4     7    1
     8     4     6    1
     9     6     7    1
    10     6    30    1
    11     6    31    1
    12     7     8    1
    13     7     9    1
    14     9    10    2
    15     9    11   am
    16    11    27    1
    17    11    12    1
    18    12    13    1
    19    12    32    1
    20    12    33    1
    21    13    14    1
    22    13    34    1
    23    13    35    1
    24    14    15    1
    25    15    26    1
    26    15    16    1
    27    15    27    1
    28    16    17    1
    29    16    36    1
    30    16    37    1
    31    17    18    1
    32    17    26    1
    33    18    19    1
    34    18    38    1
    35    18    39    1
    36    19    20    1
    37    19    25    1
    38    19    21    1
    39    21    22    1
    40    21    40    1
    41    21    41    1
    42    22    23    1
    43    22    42    1
    44    22    43    1
    45    23    24    1
    46    23    44    1
    47    23    45    1
    48    24    25    1
    49    25    46    1
    50    25    47    1
    51    26    48    1
    52    26    49    1
    53    27    50    1
    54    27    51    1
@<TRIPOS>SUBSTRUCTURE
     1 ZINC001053433946        1 TEMP              0 ****  ****    0 ROOT


##########                                Name:    ZINC001176298561
##########                DOCK_Rotatable_Bonds:                   6
##########                         Heavy_Atoms:                  23
##########                    Molecular_Weight:             337.781
##########                DOCK_Rotatable_Bonds:                   6
##########                       Formal_Charge:          -0.0100003
##########                     HBond_Acceptors:                   7
##########                        HBond_Donors:                   2
##########                         Heavy_Atoms:                  23
##########                          Grid_Score:          -26.378113
##########                     Grid_vdw_energy:          -24.937363
##########                      Grid_es_energy:           -1.440751
##########           Internal_energy_repulsive:           11.302442

@<TRIPOS>MOLECULE
ZINC001176298561
 40 41 1 0 0
SMALL
USER_CHARGES


@<TRIPOS>ATOM
      1 C1        -13.5054   -3.4400   57.6425 C.3     1  ZINC001176298561   -0.1700
      2 C2        -12.1381   -2.7549   57.5972 C.3     1  ZINC001176298561    0.1100
      3 N3        -11.9933   -1.8766   58.7607 N.am    1  ZINC001176298561   -0.6100
      4 C4        -11.4418   -2.4030   60.0117 C.3     1  ZINC001176298561    0.0900
      5 C5        -10.0570   -2.9979   59.7481 C.3     1  ZINC001176298561   -0.1800
      6 C6        -12.3674   -0.5844   58.6803 C.2     1  ZINC001176298561    0.5600
      7 O7        -12.8249   -0.1475   57.6424 O.2     1  ZINC001176298561   -0.5300
      8 C8        -12.2213    0.3022   59.8547 C.ar    1  ZINC001176298561   -0.0600
      9 C9        -13.3463    0.6867   60.5855 C.ar    1  ZINC001176298561   -0.1900
     10 C10       -13.2071    1.5158   61.6833 C.ar    1  ZINC001176298561    0.1400
     11 F11       -14.2971    1.8868   62.3900 F       1  ZINC001176298561   -0.1300
     12 C12       -11.9539    1.9662   62.0605 C.ar    1  ZINC001176298561   -0.1800
     13 C13       -10.8283    1.5877   61.3379 C.ar    1  ZINC001176298561    0.2400
     14 N14        -9.5655    2.0444   61.7225 N.pl3   1  ZINC001176298561   -0.6700
     15 C15        -9.1512    1.9184   63.0539 C.2     1  ZINC001176298561    0.0400
     16 C16        -8.7925    0.6966   63.5544 C.2     1  ZINC001176298561   -0.0300
     17 C17        -8.3805    0.5981   64.8919 C.2     1  ZINC001176298561   -0.1300
     18 Cl18       -7.9212   -0.9425   65.5471 Cl      1  ZINC001176298561   -0.0400
     19 C19        -8.3408    1.7036   65.6714 C.2     1  ZINC001176298561    0.1400
     20 N20        -8.6973    2.9194   65.1749 N.am    1  ZINC001176298561   -0.6000
     21 C21        -9.0930    3.0517   63.8944 C.2     1  ZINC001176298561    0.5100
     22 O22        -9.4094    4.1490   63.4631 O.2     1  ZINC001176298561   -0.5200
     23 C23       -10.9581    0.7518   60.2388 C.ar    1  ZINC001176298561   -0.1300
     24 H24       -13.6132   -4.0935   56.7768 H       1  ZINC001176298561    0.0700
     25 H25       -13.5860   -4.0301   58.5554 H       1  ZINC001176298561    0.0600
     26 H26       -14.2911   -2.6846   57.6276 H       1  ZINC001176298561    0.0600
     27 H27       -11.3525   -3.5103   57.6122 H       1  ZINC001176298561    0.0800
     28 H28       -12.0575   -2.1648   56.6842 H       1  ZINC001176298561    0.0900
     29 H29       -11.3580   -1.5962   60.7398 H       1  ZINC001176298561    0.0900
     30 H30       -12.1017   -3.1777   60.4022 H       1  ZINC001176298561    0.0800
     31 H31        -9.5154   -2.3615   59.0483 H       1  ZINC001176298561    0.0700
     32 H32        -9.5040   -3.0603   60.6854 H       1  ZINC001176298561    0.0700
     33 H33       -10.1651   -3.9957   59.3231 H       1  ZINC001176298561    0.0600
     34 H34       -14.3255    0.3371   60.2935 H       1  ZINC001176298561    0.1500
     35 H35       -11.8503    2.6140   62.9185 H       1  ZINC001176298561    0.1300
     36 H36        -8.9757    2.4489   61.0672 H       1  ZINC001176298561    0.4200
     37 H37        -8.8263   -0.1820   62.9273 H       1  ZINC001176298561    0.1500
     38 H38        -8.0226    1.6199   66.7000 H       1  ZINC001176298561    0.1800
     39 H39        -8.6627    3.7006   65.7491 H       1  ZINC001176298561    0.4300
     40 H40       -10.0844    0.4570   59.6765 H       1  ZINC001176298561    0.1400
@<TRIPOS>BOND
     1     1     2    1
     2     1    24    1
     3     1    25    1
     4     1    26    1
     5     2     3    1
     6     2    27    1
     7     2    28    1
     8     3     4    1
     9     3     6   am
    10     4     5    1
    11     4    29    1
    12     4    30    1
    13     5    31    1
    14     5    32    1
    15     5    33    1
    16     6     7    2
    17     6     8    1
    18     8    23   ar
    19     8     9   ar
    20     9    10   ar
    21     9    34    1
    22    10    11    1
    23    10    12   ar
    24    12    13   ar
    25    12    35    1
    26    13    14    1
    27    13    23   ar
    28    14    15    1
    29    14    36    1
    30    15    21    1
    31    15    16    2
    32    16    17    1
    33    16    37    1
    34    17    18    1
    35    17    19    2
    36    19    20    1
    37    19    38    1
    38    20    21   am
    39    20    39    1
    40    21    22    2
    41    23    40    1
@<TRIPOS>SUBSTRUCTURE
     1 ZINC001176298561        1 TEMP              0 ****  ****    0 ROOT


##########                                Name:    ZINC001041713551
##########                DOCK_Rotatable_Bonds:                  10
##########                         Heavy_Atoms:                  22
##########                    Molecular_Weight:             330.448
##########                DOCK_Rotatable_Bonds:                  10
##########                       Formal_Charge:          -0.0100006
##########                     HBond_Acceptors:                   7
##########                        HBond_Donors:                   2
##########                         Heavy_Atoms:                  22
##########                          Grid_Score:          -26.374804
##########                     Grid_vdw_energy:          -25.889658
##########                      Grid_es_energy:           -0.485146
##########           Internal_energy_repulsive:            8.092136

@<TRIPOS>MOLECULE
ZINC001041713551
 48 49 1 0 0
SMALL
USER_CHARGES


@<TRIPOS>ATOM
      1 C1         -7.3038    3.1309   51.1542 C.3     1  ZINC001041713551   -0.1500
      2 C2         -7.5984    3.2287   52.6525 C.3     1  ZINC001041713551   -0.1100
      3 C3         -7.8564    4.6895   53.0272 C.3     1  ZINC001041713551   -0.1000
      4 S4         -8.1855    4.8081   54.8072 S.3     1  ZINC001041713551   -0.1800
      5 C5         -6.6849    4.1075   55.5473 C.3     1  ZINC001041713551   -0.1300
      6 C6         -6.8135    4.1175   57.0487 C.2     1  ZINC001041713551    0.5300
      7 O7         -5.8388    4.3265   57.7395 O.2     1  ZINC001041713551   -0.5100
      8 N8         -8.0118    3.8941   57.6239 N.am    1  ZINC001041713551   -0.7300
      9 C9         -8.1371    3.9055   59.0836 C.3     1  ZINC001041713551    0.1000
     10 C10        -9.3806    3.1147   59.4948 C.3     1  ZINC001041713551    0.0900
     11 O11       -10.5778    3.6025   58.8858 O.3     1  ZINC001041713551   -0.5200
     12 C12        -9.2069    1.5886   59.3908 C.3     1  ZINC001041713551    0.0900
     13 N13        -9.9186    1.5205   60.6819 N.am    1  ZINC001041713551   -0.6400
     14 C14       -10.6536    0.5793   61.3068 C.2     1  ZINC001041713551    0.5500
     15 O15       -11.1329    0.8090   62.3970 O.2     1  ZINC001041713551   -0.5100
     16 C16       -10.8799   -0.7585   60.6510 C.3     1  ZINC001041713551    0.0800
     17 H17       -11.6389   -1.3111   61.2047 H       1  ZINC001041713551    0.0800
     18 C18        -9.5713   -1.5530   60.6473 C.3     1  ZINC001041713551   -0.1500
     19 C19        -9.7943   -2.8859   59.9260 C.3     1  ZINC001041713551   -0.1200
     20 C20       -10.3097   -2.6078   58.5106 C.3     1  ZINC001041713551   -0.1600
     21 C21       -11.5897   -1.7726   58.5969 C.3     1  ZINC001041713551    0.0600
     22 O22       -11.3201   -0.5615   59.3059 O.3     1  ZINC001041713551   -0.3600
     23 C23        -9.5023    2.8969   61.0139 C.3     1  ZINC001041713551    0.1200
     24 H24        -6.4230    3.7278   50.9174 H       1  ZINC001041713551    0.0600
     25 H25        -7.1200    2.0902   50.8873 H       1  ZINC001041713551    0.0600
     26 H26        -8.1585    3.5051   50.5907 H       1  ZINC001041713551    0.0600
     27 H27        -8.4792    2.6319   52.8892 H       1  ZINC001041713551    0.0700
     28 H28        -6.7437    2.8545   53.2160 H       1  ZINC001041713551    0.0700
     29 H29        -6.9802    5.2885   52.7790 H       1  ZINC001041713551    0.0800
     30 H30        -8.7187    5.0599   52.4728 H       1  ZINC001041713551    0.0800
     31 H31        -6.5534    3.0824   55.2007 H       1  ZINC001041713551    0.1100
     32 H32        -5.8217    4.7043   55.2525 H       1  ZINC001041713551    0.1100
     33 H33        -8.7911    3.7257   57.0715 H       1  ZINC001041713551    0.4000
     34 H34        -7.2526    3.4488   59.5277 H       1  ZINC001041713551    0.0900
     35 H35        -8.2289    4.9341   59.4323 H       1  ZINC001041713551    0.0900
     36 H36       -10.5799    3.5441   57.9205 H       1  ZINC001041713551    0.3800
     37 H37        -9.7552    1.1394   58.5627 H       1  ZINC001041713551    0.0900
     38 H38        -8.1690    1.2599   59.4435 H       1  ZINC001041713551    0.1000
     39 H39        -8.8004   -0.9829   60.1288 H       1  ZINC001041713551    0.0800
     40 H40        -9.2571   -1.7425   61.6738 H       1  ZINC001041713551    0.0800
     41 H41        -8.8528   -3.4324   59.8705 H       1  ZINC001041713551    0.0700
     42 H42       -10.5292   -3.4774   60.4719 H       1  ZINC001041713551    0.0700
     43 H43        -9.5537   -2.0590   57.9489 H       1  ZINC001041713551    0.0700
     44 H44       -10.5236   -3.5516   58.0089 H       1  ZINC001041713551    0.0800
     45 H45       -11.9375   -1.5354   57.5914 H       1  ZINC001041713551    0.1000
     46 H46       -12.3582   -2.3384   59.1235 H       1  ZINC001041713551    0.0500
     47 H47        -8.5511    2.9525   61.5433 H       1  ZINC001041713551    0.1100
     48 H48       -10.2864    3.4923   61.4816 H       1  ZINC001041713551    0.1000
@<TRIPOS>BOND
     1     1     2    1
     2     1    24    1
     3     1    25    1
     4     1    26    1
     5     2     3    1
     6     2    27    1
     7     2    28    1
     8     3     4    1
     9     3    29    1
    10     3    30    1
    11     4     5    1
    12     5     6    1
    13     5    31    1
    14     5    32    1
    15     6     7    2
    16     6     8   am
    17     8     9    1
    18     8    33    1
    19     9    10    1
    20     9    34    1
    21     9    35    1
    22    10    23    1
    23    10    11    1
    24    10    12    1
    25    11    36    1
    26    12    13    1
    27    12    37    1
    28    12    38    1
    29    13    14   am
    30    13    23    1
    31    14    15    2
    32    14    16    1
    33    16    17    1
    34    16    22    1
    35    16    18    1
    36    18    19    1
    37    18    39    1
    38    18    40    1
    39    19    20    1
    40    19    41    1
    41    19    42    1
    42    20    21    1
    43    20    43    1
    44    20    44    1
    45    21    22    1
    46    21    45    1
    47    21    46    1
    48    23    47    1
    49    23    48    1
@<TRIPOS>SUBSTRUCTURE
     1 ZINC001041713551        1 TEMP              0 ****  ****    0 ROOT


##########                                Name:    ZINC001015955459
##########                DOCK_Rotatable_Bonds:                   6
##########                         Heavy_Atoms:                  24
##########                    Molecular_Weight:             347.844
##########                DOCK_Rotatable_Bonds:                   6
##########                       Formal_Charge:          -0.0200002
##########                     HBond_Acceptors:                   6
##########                        HBond_Donors:                   1
##########                         Heavy_Atoms:                  24
##########                          Grid_Score:          -26.359520
##########                     Grid_vdw_energy:          -25.558733
##########                      Grid_es_energy:           -0.800788
##########           Internal_energy_repulsive:           15.272619

@<TRIPOS>MOLECULE
ZINC001015955459
 46 48 1 0 0
SMALL
USER_CHARGES


@<TRIPOS>ATOM
      1 C1        -14.3961   -2.0536   55.5536 C.3     1  ZINC001015955459   -0.1500
      2 C2        -13.5572   -0.8119   55.2444 C.3     1  ZINC001015955459   -0.0300
      3 C3        -13.0692   -0.8740   53.7956 C.3     1  ZINC001015955459   -0.1500
      4 C4        -14.3981    0.4234   55.4387 C.2     1  ZINC001015955459    0.0600
      5 C5        -14.6915    1.0255   56.6234 C.2     1  ZINC001015955459   -0.0800
      6 C6        -14.2467    0.5915   57.9602 C.2     1  ZINC001015955459    0.6100
      7 O7        -14.5673    1.2295   58.9447 O.2     1  ZINC001015955459   -0.5300
      8 N8        -13.4846   -0.5124   58.0914 N.am    1  ZINC001015955459   -0.7100
      9 C9        -13.0440   -0.9446   59.4200 C.3     1  ZINC001015955459    0.1400
     10 H10       -13.8650   -0.8704   60.1332 H       1  ZINC001015955459    0.1000
     11 C11       -12.5123   -2.3916   59.3637 C.3     1  ZINC001015955459   -0.1300
     12 C12       -11.0367   -2.2944   59.8067 C.3     1  ZINC001015955459    0.0200
     13 N13       -10.9707   -1.0519   60.6184 N.3     1  ZINC001015955459   -0.4900
     14 C14        -9.5929   -0.5488   60.6999 C.3     1  ZINC001015955459    0.0800
     15 C15        -9.4035    0.1886   62.0003 C.ar    1  ZINC001015955459   -0.1100
     16 C16        -9.8679    1.4836   62.1343 C.ar    1  ZINC001015955459   -0.1100
     17 C17        -9.6988    2.1591   63.3288 C.ar    1  ZINC001015955459   -0.1000
     18 C18        -9.0559    1.5437   64.3859 C.ar    1  ZINC001015955459   -0.1100
     19 C19        -8.5860    0.2492   64.2507 C.ar    1  ZINC001015955459   -0.0300
     20 Cl20       -7.7777   -0.5244   65.5780 Cl      1  ZINC001015955459   -0.0700
     21 C21        -8.7602   -0.4280   63.0572 C.ar    1  ZINC001015955459   -0.1000
     22 C22       -11.8457   -0.0927   59.8911 C.3     1  ZINC001015955459    0.0100
     23 N23       -15.4775    2.0999   56.3424 N.2     1  ZINC001015955459   -0.4600
     24 C24       -15.6489    2.1596   55.0557 C.2     1  ZINC001015955459    0.1800
     25 O25       -15.0000    1.1399   54.4759 O.3     1  ZINC001015955459   -0.1900
     26 H26       -15.2540   -2.0888   54.8823 H       1  ZINC001015955459    0.0600
     27 H27       -13.7878   -2.9472   55.4131 H       1  ZINC001015955459    0.0700
     28 H28       -14.7437   -2.0094   56.5857 H       1  ZINC001015955459    0.0600
     29 H29       -12.6992   -0.7767   55.9157 H       1  ZINC001015955459    0.1300
     30 H30       -12.4715    0.0106   53.5754 H       1  ZINC001015955459    0.0600
     31 H31       -12.4609   -1.7676   53.6551 H       1  ZINC001015955459    0.0700
     32 H32       -13.9271   -0.9093   53.1244 H       1  ZINC001015955459    0.0600
     33 H33       -13.2279   -1.0206   57.3060 H       1  ZINC001015955459    0.4100
     34 H34       -13.0724   -3.0276   60.0491 H       1  ZINC001015955459    0.0800
     35 H35       -12.5793   -2.7802   58.3475 H       1  ZINC001015955459    0.0700
     36 H36       -10.7639   -3.1589   60.4122 H       1  ZINC001015955459    0.0900
     37 H37       -10.3833   -2.2162   58.9380 H       1  ZINC001015955459    0.0500
     38 H38        -8.8969   -1.3864   60.6523 H       1  ZINC001015955459    0.0900
     39 H39        -9.4037    0.1286   59.8671 H       1  ZINC001015955459    0.0900
     40 H40       -10.3665    1.9665   61.3070 H       1  ZINC001015955459    0.1300
     41 H41       -10.0655    3.1694   63.4343 H       1  ZINC001015955459    0.1300
     42 H42        -8.9198    2.0731   65.3174 H       1  ZINC001015955459    0.1300
     43 H43        -8.3933   -1.4383   62.9508 H       1  ZINC001015955459    0.1300
     44 H44       -11.3194    0.3293   59.0349 H       1  ZINC001015955459    0.0700
     45 H45       -12.1823    0.6996   60.5598 H       1  ZINC001015955459    0.0900
     46 H46       -16.2268    2.9093   54.5360 H       1  ZINC001015955459    0.2600
@<TRIPOS>BOND
     1     1     2    1
     2     1    26    1
     3     1    27    1
     4     1    28    1
     5     2     3    1
     6     2     4    1
     7     2    29    1
     8     3    30    1
     9     3    31    1
    10     3    32    1
    11     4    25    1
    12     4     5    2
    13     5     6    1
    14     5    23    1
    15     6     7    2
    16     6     8   am
    17     8     9    1
    18     8    33    1
    19     9    10    1
    20     9    22    1
    21     9    11    1
    22    11    12    1
    23    11    34    1
    24    11    35    1
    25    12    13    1
    26    12    36    1
    27    12    37    1
    28    13    14    1
    29    13    22    1
    30    14    15    1
    31    14    38    1
    32    14    39    1
    33    15    21   ar
    34    15    16   ar
    35    16    17   ar
    36    16    40    1
    37    17    18   ar
    38    17    41    1
    39    18    19   ar
    40    18    42    1
    41    19    20    1
    42    19    21   ar
    43    21    43    1
    44    22    44    1
    45    22    45    1
    46    23    24    2
    47    24    25    1
    48    24    46    1
@<TRIPOS>SUBSTRUCTURE
     1 ZINC001015955459        1 TEMP              0 ****  ****    0 ROOT


##########                                Name:    ZINC001193456967
##########                DOCK_Rotatable_Bonds:                   3
##########                         Heavy_Atoms:                  27
##########                    Molecular_Weight:             392.451
##########                DOCK_Rotatable_Bonds:                   3
##########                       Formal_Charge:           0.0300002
##########                     HBond_Acceptors:                   8
##########                        HBond_Donors:                   0
##########                         Heavy_Atoms:                  27
##########                          Grid_Score:          -26.354647
##########                     Grid_vdw_energy:          -24.420321
##########                      Grid_es_energy:           -1.934326
##########           Internal_energy_repulsive:           45.399876

@<TRIPOS>MOLECULE
ZINC001193456967
 48 50 1 0 0
SMALL
USER_CHARGES


@<TRIPOS>ATOM
      1 C1         -9.0805   -3.7800   58.4096 C.3     1  ZINC001193456967   -0.1400
      2 C2         -9.9346   -2.7582   59.1147 C.ar    1  ZINC001193456967    0.0300
      3 C3         -9.4134   -2.0296   60.1674 C.ar    1  ZINC001193456967   -0.1400
      4 C4        -10.1972   -1.0923   60.8143 C.ar    1  ZINC001193456967    0.0300
      5 C5        -11.5016   -0.8834   60.4083 C.ar    1  ZINC001193456967   -0.6900
      6 S6        -12.5007    0.3108   61.2331 S.o2    1  ZINC001193456967    2.7100
      7 O7        -13.7877    0.2392   60.6352 O.2     1  ZINC001193456967   -0.9300
      8 O8        -12.2789    0.1271   62.6247 O.2     1  ZINC001193456967   -0.9400
      9 N9        -11.8920    1.8039   60.8558 N.am    1  ZINC001193456967   -1.0000
     10 C10       -11.7786    2.3676   59.4982 C.3     1  ZINC001193456967    0.1100
     11 C11       -10.6461    3.4198   59.5991 C.3     1  ZINC001193456967   -0.1200
     12 C12       -10.8956    4.0115   61.0116 C.3     1  ZINC001193456967   -0.0500
     13 H13       -11.6692    4.7786   60.9772 H       1  ZINC001193456967    0.1000
     14 C14        -9.6201    4.5688   61.5891 C.ar    1  ZINC001193456967   -0.0800
     15 C15        -8.4609    4.5642   60.8356 C.ar    1  ZINC001193456967   -0.0800
     16 C16        -7.2907    5.0750   61.3643 C.ar    1  ZINC001193456967   -0.1500
     17 C17        -7.2795    5.5920   62.6486 C.ar    1  ZINC001193456967    0.1000
     18 F18        -6.1361    6.0920   63.1662 F       1  ZINC001193456967   -0.1400
     19 C19        -8.4411    5.5964   63.4021 C.ar    1  ZINC001193456967   -0.1500
     20 C20        -9.6113    5.0895   62.8697 C.ar    1  ZINC001193456967   -0.0800
     21 C21       -11.3812    2.7896   61.8197 C.3     1  ZINC001193456967    0.1900
     22 C22       -12.4931    3.2110   62.7825 C.3     1  ZINC001193456967   -0.1800
     23 C23       -10.2131    2.1853   62.6016 C.3     1  ZINC001193456967   -0.1800
     24 C24       -12.0227   -1.6113   59.3545 C.ar    1  ZINC001193456967    0.0400
     25 C25       -11.2380   -2.5456   58.7053 C.ar    1  ZINC001193456967   -0.0600
     26 N26       -11.7956   -3.3249   57.5771 N.pl3   1  ZINC001193456967    0.0200
     27 O27       -11.0947   -3.5957   56.6186 O.2     1  ZINC001193456967   -0.1400
     28 O28       -12.9556   -3.6953   57.6073 O.2     1  ZINC001193456967   -0.1500
     29 H29        -8.6287   -3.3286   57.5262 H       1  ZINC001193456967    0.1100
     30 H30        -8.2957   -4.1246   59.0830 H       1  ZINC001193456967    0.0900
     31 H31        -9.6990   -4.6258   58.1094 H       1  ZINC001193456967    0.0800
     32 H32        -8.3941   -2.1928   60.4846 H       1  ZINC001193456967    0.1600
     33 H33        -9.7901   -0.5234   61.6372 H       1  ZINC001193456967    0.1600
     34 H34       -11.5098    1.5883   58.7852 H       1  ZINC001193456967    0.0900
     35 H35       -12.7142    2.8442   59.2059 H       1  ZINC001193456967    0.0700
     36 H36        -9.6662    2.9459   59.5416 H       1  ZINC001193456967    0.0900
     37 H37       -10.7541    4.1849   58.8303 H       1  ZINC001193456967    0.0900
     38 H38        -8.4699    4.1610   59.8338 H       1  ZINC001193456967    0.1400
     39 H39        -6.3851    5.0707   60.7757 H       1  ZINC001193456967    0.1400
     40 H40        -8.4334    5.9991   64.4042 H       1  ZINC001193456967    0.1400
     41 H41       -10.5177    5.0931   63.4570 H       1  ZINC001193456967    0.1300
     42 H42       -13.3282    3.6220   62.2154 H       1  ZINC001193456967    0.0700
     43 H43       -12.8308    2.3434   63.3494 H       1  ZINC001193456967    0.0600
     44 H44       -12.1122    3.9675   63.4685 H       1  ZINC001193456967    0.0800
     45 H45        -9.7410    2.9600   63.2060 H       1  ZINC001193456967    0.0800
     46 H46       -10.5825    1.3922   63.2515 H       1  ZINC001193456967    0.0900
     47 H47        -9.4835    1.7735   61.9043 H       1  ZINC001193456967    0.0700
     48 H48       -13.0419   -1.4478   59.0370 H       1  ZINC001193456967    0.1600
@<TRIPOS>BOND
     1     1     2    1
     2     1    29    1
     3     1    30    1
     4     1    31    1
     5     2    25   ar
     6     2     3   ar
     7     3     4   ar
     8     3    32    1
     9     4     5   ar
    10     4    33    1
    11     5     6    1
    12     5    24   ar
    13     6     7    2
    14     6     8    2
    15     6     9   am
    16     9    21    1
    17     9    10    1
    18    10    11    1
    19    10    34    1
    20    10    35    1
    21    11    12    1
    22    11    36    1
    23    11    37    1
    24    12    13    1
    25    12    14    1
    26    12    21    1
    27    14    20   ar
    28    14    15   ar
    29    15    16   ar
    30    15    38    1
    31    16    17   ar
    32    16    39    1
    33    17    18    1
    34    17    19   ar
    35    19    20   ar
    36    19    40    1
    37    20    41    1
    38    21    22    1
    39    21    23    1
    40    22    42    1
    41    22    43    1
    42    22    44    1
    43    23    45    1
    44    23    46    1
    45    23    47    1
    46    24    25   ar
    47    24    48    1
    48    25    26    1
    49    26    27    2
    50    26    28    2
@<TRIPOS>SUBSTRUCTURE
     1 ZINC001193456967        1 TEMP              0 ****  ****    0 ROOT


##########                                Name:    ZINC001079355651
##########                DOCK_Rotatable_Bonds:                   5
##########                         Heavy_Atoms:                  25
##########                    Molecular_Weight:             353.851
##########                DOCK_Rotatable_Bonds:                   5
##########                       Formal_Charge:           0.0199997
##########                     HBond_Acceptors:                   5
##########                        HBond_Donors:                   1
##########                         Heavy_Atoms:                  25
##########                          Grid_Score:          -26.319504
##########                     Grid_vdw_energy:          -25.930763
##########                      Grid_es_energy:           -0.388741
##########           Internal_energy_repulsive:            4.587615

@<TRIPOS>MOLECULE
ZINC001079355651
 45 47 1 0 0
SMALL
USER_CHARGES


@<TRIPOS>ATOM
      1 C1         -9.7748    3.5566   65.4847 C.3     1  ZINC001079355651   -0.1500
      2 C2        -10.4555    2.3923   64.7621 C.3     1  ZINC001079355651   -0.1000
      3 H3        -11.4394    2.2043   65.1915 H       1  ZINC001079355651    0.0900
      4 C4         -9.5811    1.1229   64.8486 C.3     1  ZINC001079355651    0.0300
      5 N5         -9.7520    0.4601   63.5300 N.3     1  ZINC001079355651   -0.5100
      6 C6         -8.6423   -0.4627   63.2569 C.3     1  ZINC001079355651    0.1600
      7 C7         -8.8996   -1.1805   61.9978 C.1     1  ZINC001079355651   -0.1400
      8 C8         -9.1047   -1.7530   60.9936 C.1     1  ZINC001079355651   -0.1300
      9 C9         -9.3550   -2.4513   59.7687 C.ar    1  ZINC001079355651    0.0300
     10 C10       -10.6656   -2.6921   59.3549 C.ar    1  ZINC001079355651   -0.0900
     11 C11       -10.9008   -3.3656   58.1736 C.ar    1  ZINC001079355651   -0.1000
     12 C12        -9.8409   -3.8020   57.3997 C.ar    1  ZINC001079355651   -0.1000
     13 C13        -8.5376   -3.5669   57.8046 C.ar    1  ZINC001079355651   -0.0300
     14 Cl14       -7.2136   -4.1191   56.8268 Cl      1  ZINC001079355651   -0.0600
     15 C15        -8.2893   -2.8888   58.9813 C.ar    1  ZINC001079355651   -0.0900
     16 C16        -9.7636    1.5820   62.5564 C.3     1  ZINC001079355651    0.0200
     17 C17       -10.5779    2.6955   63.2545 C.3     1  ZINC001079355651    0.1500
     18 H18       -10.1524    3.6734   63.0294 H       1  ZINC001079355651    0.1000
     19 N19       -11.9796    2.6420   62.8319 N.am    1  ZINC001079355651   -0.7100
     20 C20       -12.7396    3.7542   62.8759 C.2     1  ZINC001079355651    0.5600
     21 O21       -12.2618    4.8016   63.2648 O.2     1  ZINC001079355651   -0.5300
     22 C22       -14.1576    3.6997   62.4502 C.ar    1  ZINC001079355651   -0.0900
     23 C23       -14.7289    2.5034   62.0061 C.ar    1  ZINC001079355651   -0.1400
     24 C24       -16.0549    2.4978   61.6185 C.ar    1  ZINC001079355651    0.1000
     25 N25       -16.7779    3.5991   61.6634 N.ar    1  ZINC001079355651   -0.4700
     26 C26       -16.2785    4.7473   62.0755 C.ar    1  ZINC001079355651    0.1000
     27 C27       -14.9631    4.8419   62.4869 C.ar    1  ZINC001079355651   -0.1200
     28 H28       -10.3788    4.4569   65.3724 H       1  ZINC001079355651    0.0600
     29 H29        -9.6726    3.3173   66.5432 H       1  ZINC001079355651    0.0700
     30 H30        -8.7880    3.7249   65.0534 H       1  ZINC001079355651    0.0600
     31 H31        -8.5365    1.3908   65.0068 H       1  ZINC001079355651    0.0600
     32 H32        -9.9333    0.4727   65.6494 H       1  ZINC001079355651    0.0900
     33 H33        -7.7136    0.1014   63.1703 H       1  ZINC001079355651    0.0700
     34 H34        -8.5568   -1.1800   64.0732 H       1  ZINC001079355651    0.1100
     35 H35       -11.4944   -2.3524   59.9582 H       1  ZINC001079355651    0.1300
     36 H36       -11.9149   -3.5527   57.8528 H       1  ZINC001079355651    0.1400
     37 H37       -10.0304   -4.3287   56.4761 H       1  ZINC001079355651    0.1400
     38 H38        -7.2726   -2.7057   59.2964 H       1  ZINC001079355651    0.1400
     39 H39        -8.7475    1.9218   62.3558 H       1  ZINC001079355651    0.0600
     40 H40       -10.2531    1.2774   61.6313 H       1  ZINC001079355651    0.0900
     41 H41       -12.3607    1.8062   62.5203 H       1  ZINC001079355651    0.4000
     42 H42       -14.1425    1.5974   61.9662 H       1  ZINC001079355651    0.1400
     43 H43       -16.5052    1.5788   61.2736 H       1  ZINC001079355651    0.1600
     44 H44       -16.9074    5.6251   62.0956 H       1  ZINC001079355651    0.1700
     45 H45       -14.5606    5.7860   62.8233 H       1  ZINC001079355651    0.1500
@<TRIPOS>BOND
     1     1     2    1
     2     1    28    1
     3     1    29    1
     4     1    30    1
     5     2     3    1
     6     2    17    1
     7     2     4    1
     8     4     5    1
     9     4    31    1
    10     4    32    1
    11     5     6    1
    12     5    16    1
    13     6     7    1
    14     6    33    1
    15     6    34    1
    16     7     8    3
    17     8     9    1
    18     9    15   ar
    19     9    10   ar
    20    10    11   ar
    21    10    35    1
    22    11    12   ar
    23    11    36    1
    24    12    13   ar
    25    12    37    1
    26    13    14    1
    27    13    15   ar
    28    15    38    1
    29    16    17    1
    30    16    39    1
    31    16    40    1
    32    17    18    1
    33    17    19    1
    34    19    20   am
    35    19    41    1
    36    20    21    2
    37    20    22    1
    38    22    27   ar
    39    22    23   ar
    40    23    24   ar
    41    23    42    1
    42    24    25   ar
    43    24    43    1
    44    25    26   ar
    45    26    27   ar
    46    26    44    1
    47    27    45    1
@<TRIPOS>SUBSTRUCTURE
     1 ZINC001079355651        1 TEMP              0 ****  ****    0 ROOT


##########                                Name:    ZINC000302023461
##########                DOCK_Rotatable_Bonds:                   3
##########                         Heavy_Atoms:                  25
##########                    Molecular_Weight:             356.362
##########                DOCK_Rotatable_Bonds:                   3
##########                       Formal_Charge:        -2.08616e-07
##########                     HBond_Acceptors:                   9
##########                        HBond_Donors:                   1
##########                         Heavy_Atoms:                  25
##########                          Grid_Score:          -26.295628
##########                     Grid_vdw_energy:          -25.704039
##########                      Grid_es_energy:           -0.591590
##########           Internal_energy_repulsive:           23.002304

@<TRIPOS>MOLECULE
ZINC000302023461
 37 40 1 0 0
SMALL
USER_CHARGES


@<TRIPOS>ATOM
      1 O1        -10.1757   -4.0698   55.0150 O.2     1  ZINC000302023461   -0.1600
      2 N2        -10.2308   -3.7081   56.1769 N.pl3   1  ZINC000302023461    0.0200
      3 O3        -11.2995   -3.3860   56.6644 O.2     1  ZINC000302023461   -0.1300
      4 C4         -8.9998   -3.6661   56.9980 C.ar    1  ZINC000302023461    0.0000
      5 C5         -7.7880   -4.0310   56.4463 C.ar    1  ZINC000302023461   -0.0600
      6 C6         -6.6373   -3.9920   57.2128 C.ar    1  ZINC000302023461   -0.0900
      7 C7         -6.6959   -3.5871   58.5338 C.ar    1  ZINC000302023461   -0.0800
      8 C8         -7.9046   -3.2206   59.0924 C.ar    1  ZINC000302023461   -0.0500
      9 C9         -9.0617   -3.2536   58.3239 C.ar    1  ZINC000302023461   -0.1100
     10 S10       -10.6059   -2.7863   59.0321 S.3     1  ZINC000302023461    0.1900
     11 C11       -10.2431   -1.2358   59.7862 C.2     1  ZINC000302023461    0.2100
     12 N12        -9.0643   -0.6577   59.8116 N.2     1  ZINC000302023461   -0.3200
     13 N13        -9.2165    0.5527   60.5071 N.pl3   1  ZINC000302023461   -0.4700
     14 C14       -10.5182    0.6255   60.8658 C.2     1  ZINC000302023461    0.3500
     15 C15       -11.1525    1.7281   61.6200 C.ar    1  ZINC000302023461   -0.0400
     16 C16       -12.4375    1.5714   62.1401 C.ar    1  ZINC000302023461   -0.0900
     17 C17       -13.0273    2.6019   62.8414 C.ar    1  ZINC000302023461   -0.1100
     18 C18       -12.3473    3.7972   63.0327 C.ar    1  ZINC000302023461    0.0800
     19 O19       -12.9520    4.8036   63.7206 O.3     1  ZINC000302023461   -0.3000
     20 C20       -12.1046    5.8469   64.2135 C.3     1  ZINC000302023461    0.0200
     21 C21       -11.1522    6.2661   63.0856 C.3     1  ZINC000302023461    0.0200
     22 O22       -10.3814    5.1223   62.7018 O.3     1  ZINC000302023461   -0.3000
     23 C23       -11.0636    3.9585   62.5190 C.ar    1  ZINC000302023461    0.0500
     24 C24       -10.4651    2.9262   61.8183 C.ar    1  ZINC000302023461   -0.0500
     25 N25       -11.1234   -0.4571   60.4188 N.2     1  ZINC000302023461   -0.5000
     26 H26        -7.7386   -4.3477   55.4149 H       1  ZINC000302023461    0.1600
     27 H27        -5.6908   -4.2787   56.7788 H       1  ZINC000302023461    0.1500
     28 H28        -5.7955   -3.5578   59.1294 H       1  ZINC000302023461    0.1500
     29 H29        -7.9498   -2.9051   60.1243 H       1  ZINC000302023461    0.1600
     30 H30        -8.5248    1.2067   60.6935 H       1  ZINC000302023461    0.4400
     31 H31       -12.9703    0.6435   61.9932 H       1  ZINC000302023461    0.1300
     32 H32       -14.0223    2.4787   63.2432 H       1  ZINC000302023461    0.1500
     33 H33       -12.7111    6.6997   64.5185 H       1  ZINC000302023461    0.1300
     34 H34       -11.5289    5.4818   65.0640 H       1  ZINC000302023461    0.0800
     35 H35       -11.7280    6.6246   62.2323 H       1  ZINC000302023461    0.0800
     36 H36       -10.4883    7.0550   63.4393 H       1  ZINC000302023461    0.1300
     37 H37        -9.4683    3.0494   61.4214 H       1  ZINC000302023461    0.1600
@<TRIPOS>BOND
     1     1     2    2
     2     2     3    2
     3     2     4    1
     4     4     9   ar
     5     4     5   ar
     6     5     6   ar
     7     5    26    1
     8     6     7   ar
     9     6    27    1
    10     7     8   ar
    11     7    28    1
    12     8     9   ar
    13     8    29    1
    14     9    10    1
    15    10    11    1
    16    11    25    1
    17    11    12    2
    18    12    13    1
    19    13    14    1
    20    13    30    1
    21    14    15    1
    22    14    25    2
    23    15    24   ar
    24    15    16   ar
    25    16    17   ar
    26    16    31    1
    27    17    18   ar
    28    17    32    1
    29    18    23   ar
    30    18    19    1
    31    19    20    1
    32    20    21    1
    33    20    33    1
    34    20    34    1
    35    21    22    1
    36    21    35    1
    37    21    36    1
    38    22    23    1
    39    23    24   ar
    40    24    37    1
@<TRIPOS>SUBSTRUCTURE
     1 ZINC000302023461        1 TEMP              0 ****  ****    0 ROOT


##########                                Name:    ZINC000474368324
##########                DOCK_Rotatable_Bonds:                   9
##########                         Heavy_Atoms:                  27
##########                    Molecular_Weight:             417.332
##########                DOCK_Rotatable_Bonds:                   9
##########                       Formal_Charge:        -1.63913e-07
##########                     HBond_Acceptors:                   8
##########                        HBond_Donors:                   1
##########                         Heavy_Atoms:                  27
##########                          Grid_Score:          -26.290430
##########                     Grid_vdw_energy:          -25.877062
##########                      Grid_es_energy:           -0.413368
##########           Internal_energy_repulsive:           23.891859

@<TRIPOS>MOLECULE
ZINC000474368324
 53 54 1 0 0
SMALL
USER_CHARGES


@<TRIPOS>ATOM
      1 C1         -3.6207    4.1478   59.0778 C.3     1  ZINC000474368324   -0.1500
      2 C2         -4.7947    5.1263   59.1501 C.3     1  ZINC000474368324    0.0600
      3 O3         -6.0417    4.3838   59.1940 O.3     1  ZINC000474368324   -0.3300
      4 C4         -7.1753    5.0996   59.2590 C.2     1  ZINC000474368324    0.4700
      5 O5         -7.1272    6.3068   59.2780 O.2     1  ZINC000474368324   -0.5100
      6 C6         -8.5079    4.3977   59.3082 C.3     1  ZINC000474368324   -0.0400
      7 C7         -9.5726    5.2786   58.6512 C.3     1  ZINC000474368324    0.0600
      8 O8         -9.2140    5.5243   57.2900 O.3     1  ZINC000474368324   -0.3700
      9 C9        -10.1484    6.3405   56.5810 C.3     1  ZINC000474368324    0.0300
     10 C10        -8.4119    3.0681   58.5563 C.3     1  ZINC000474368324   -0.1200
     11 C11        -9.7772    2.3737   58.5788 C.3     1  ZINC000474368324    0.1100
     12 N12       -10.2207    2.2474   59.9738 N.am    1  ZINC000474368324   -0.6300
     13 C13       -10.5815    1.0491   60.4739 C.2     1  ZINC000474368324    0.7100
     14 O14       -10.9468    0.9577   61.6300 O.2     1  ZINC000474368324   -0.5800
     15 N15       -10.5374   -0.0482   59.6925 N.am    1  ZINC000474368324   -0.7400
     16 C16       -10.9295   -1.3508   60.2361 C.3     1  ZINC000474368324    0.2000
     17 H17       -11.5898   -1.2041   61.0908 H       1  ZINC000474368324    0.1100
     18 C18        -9.6807   -2.1144   60.6815 C.3     1  ZINC000474368324   -0.1600
     19 C19       -11.6500   -2.1418   59.1747 C.ar    1  ZINC000474368324   -0.0700
     20 C20       -10.9742   -2.5540   58.0420 C.ar    1  ZINC000474368324   -0.1000
     21 C21       -11.6343   -3.2802   57.0679 C.ar    1  ZINC000474368324   -0.0900
     22 C22       -12.9707   -3.5945   57.2260 C.ar    1  ZINC000474368324   -0.1000
     23 C23       -13.6489   -3.1827   58.3594 C.ar    1  ZINC000474368324   -0.0300
     24 Cl24      -15.3277   -3.5773   58.5584 Cl      1  ZINC000474368324   -0.0400
     25 C25       -12.9865   -2.4601   59.3371 C.ar    1  ZINC000474368324   -0.0300
     26 Cl26      -13.8359   -1.9430   60.7601 Cl      1  ZINC000474368324   -0.0400
     27 C27       -10.2630    3.4525   60.8134 C.3     1  ZINC000474368324    0.1300
     28 C28        -8.8922    4.1348   60.7660 C.3     1  ZINC000474368324   -0.1200
     29 H29        -2.6846    4.7053   59.0448 H       1  ZINC000474368324    0.0800
     30 H30        -3.6295    3.5042   59.9574 H       1  ZINC000474368324    0.0700
     31 H31        -3.7116    3.5370   58.1796 H       1  ZINC000474368324    0.0700
     32 H32        -4.7038    5.7372   60.0482 H       1  ZINC000474368324    0.0700
     33 H33        -4.7859    5.7699   58.2705 H       1  ZINC000474368324    0.0700
     34 H34       -10.5366    4.7713   58.6872 H       1  ZINC000474368324    0.0700
     35 H35        -9.6405    6.2262   59.1858 H       1  ZINC000474368324    0.0600
     36 H36       -11.1237    5.8539   56.5739 H       1  ZINC000474368324    0.0400
     37 H37       -10.2297    7.3102   57.0722 H       1  ZINC000474368324    0.0400
     38 H38        -9.8046    6.4801   55.5562 H       1  ZINC000474368324    0.0900
     39 H39        -8.1154    3.2544   57.5241 H       1  ZINC000474368324    0.1000
     40 H40        -7.6714    2.4302   59.0386 H       1  ZINC000474368324    0.0800
     41 H41       -10.4988    2.9681   58.0183 H       1  ZINC000474368324    0.0800
     42 H42        -9.6908    1.3833   58.1318 H       1  ZINC000474368324    0.0800
     43 H43       -10.2461    0.0247   58.7701 H       1  ZINC000474368324    0.3900
     44 H44        -9.0205   -2.2612   59.8267 H       1  ZINC000474368324    0.0600
     45 H45        -9.1596   -1.5423   61.4491 H       1  ZINC000474368324    0.0700
     46 H46        -9.9725   -3.0837   61.0859 H       1  ZINC000474368324    0.0700
     47 H47        -9.9298   -2.3086   57.9173 H       1  ZINC000474368324    0.1300
     48 H48       -11.1052   -3.6016   56.1829 H       1  ZINC000474368324    0.1400
     49 H49       -13.4859   -4.1615   56.4647 H       1  ZINC000474368324    0.1500
     50 H50       -11.0242    4.1348   60.4352 H       1  ZINC000474368324    0.0700
     51 H51       -10.4970    3.1739   61.8409 H       1  ZINC000474368324    0.1100
     52 H52        -8.1471    3.4868   61.2275 H       1  ZINC000474368324    0.0900
     53 H53        -8.9376    5.0802   61.3065 H       1  ZINC000474368324    0.0900
@<TRIPOS>BOND
     1     1     2    1
     2     1    29    1
     3     1    30    1
     4     1    31    1
     5     2     3    1
     6     2    32    1
     7     2    33    1
     8     3     4    1
     9     4     5    2
    10     4     6    1
    11     6    28    1
    12     6     7    1
    13     6    10    1
    14     7     8    1
    15     7    34    1
    16     7    35    1
    17     8     9    1
    18     9    36    1
    19     9    37    1
    20     9    38    1
    21    10    11    1
    22    10    39    1
    23    10    40    1
    24    11    12    1
    25    11    41    1
    26    11    42    1
    27    12    13   am
    28    12    27    1
    29    13    14    2
    30    13    15   am
    31    15    16    1
    32    15    43    1
    33    16    17    1
    34    16    18    1
    35    16    19    1
    36    18    44    1
    37    18    45    1
    38    18    46    1
    39    19    25   ar
    40    19    20   ar
    41    20    21   ar
    42    20    47    1
    43    21    22   ar
    44    21    48    1
    45    22    23   ar
    46    22    49    1
    47    23    24    1
    48    23    25   ar
    49    25    26    1
    50    27    28    1
    51    27    50    1
    52    27    51    1
    53    28    52    1
    54    28    53    1
@<TRIPOS>SUBSTRUCTURE
     1 ZINC000474368324        1 TEMP              0 ****  ****    0 ROOT


##########                                Name:    ZINC000654672208
##########                DOCK_Rotatable_Bonds:                   5
##########                         Heavy_Atoms:                  25
##########                    Molecular_Weight:             365.497
##########                DOCK_Rotatable_Bonds:                   5
##########                       Formal_Charge:           0.0100001
##########                     HBond_Acceptors:                   7
##########                        HBond_Donors:                   1
##########                         Heavy_Atoms:                  25
##########                          Grid_Score:          -26.254950
##########                     Grid_vdw_energy:          -25.144249
##########                      Grid_es_energy:           -1.110701
##########           Internal_energy_repulsive:           19.491280

@<TRIPOS>MOLECULE
ZINC000654672208
 52 54 1 0 0
SMALL
USER_CHARGES


@<TRIPOS>ATOM
      1 C1         -7.0611   -4.3514   56.7962 C.3     1  ZINC000654672208   -0.1100
      2 C2         -8.0710   -3.6406   57.6598 C.ar    1  ZINC000654672208   -0.1300
      3 C3         -7.6570   -2.8580   58.7207 C.ar    1  ZINC000654672208    0.1000
      4 N4         -8.5348   -2.2326   59.4807 N.ar    1  ZINC000654672208   -0.4700
      5 C5         -9.8319   -2.3264   59.2629 C.ar    1  ZINC000654672208    0.1200
      6 C6        -10.7930   -1.5913   60.1612 C.3     1  ZINC000654672208   -0.0900
      7 C7        -11.6173   -0.6068   59.3293 C.3     1  ZINC000654672208    0.1500
      8 N8        -11.3088    0.7631   59.7466 N.am    1  ZINC000654672208   -0.7500
      9 C9        -11.6213    1.1750   60.9913 C.2     1  ZINC000654672208    0.7100
     10 O10       -12.1594    0.4096   61.7677 O.2     1  ZINC000654672208   -0.5800
     11 N11       -11.3374    2.4353   61.3752 N.am    1  ZINC000654672208   -0.6300
     12 C12       -10.6875    3.3714   60.4478 C.3     1  ZINC000654672208    0.1300
     13 C13        -9.4369    3.9435   61.1224 C.3     1  ZINC000654672208   -0.1400
     14 C14        -9.8241    4.5600   62.4680 C.3     1  ZINC000654672208   -0.1100
     15 C15       -10.4067    3.4733   63.3797 C.3     1  ZINC000654672208   -0.0600
     16 C16       -10.7786    4.0964   64.7291 C.3     1  ZINC000654672208   -0.1200
     17 C17       -10.6492    3.0125   65.8300 C.3     1  ZINC000654672208   -0.5800
     18 S18        -9.0836    2.1868   65.3336 S.o2    1  ZINC000654672208    2.3800
     19 O19        -7.9775    2.9945   65.7123 O.2     1  ZINC000654672208   -0.9300
     20 O20        -9.1269    0.8170   65.7091 O.2     1  ZINC000654672208   -0.9300
     21 C21        -9.3721    2.3450   63.5314 C.3     1  ZINC000654672208   -0.5800
     22 C22       -11.6776    2.9000   62.7264 C.3     1  ZINC000654672208    0.1200
     23 C23       -10.3202   -3.0907   58.2199 C.ar    1  ZINC000654672208   -0.1200
     24 C24       -11.8041   -3.1921   57.9777 C.3     1  ZINC000654672208   -0.1200
     25 C25        -9.4273   -3.7590   57.3964 C.ar    1  ZINC000654672208   -0.0800
     26 H26        -6.7691   -3.7031   55.9700 H       1  ZINC000654672208    0.0700
     27 H27        -6.1826   -4.5980   57.3925 H       1  ZINC000654672208    0.0700
     28 H28        -7.5011   -5.2671   56.4014 H       1  ZINC000654672208    0.0700
     29 H29        -6.6022   -2.7577   58.9303 H       1  ZINC000654672208    0.1600
     30 H30       -11.4594   -2.3068   60.6432 H       1  ZINC000654672208    0.0900
     31 H31       -10.2346   -1.0456   60.9217 H       1  ZINC000654672208    0.0900
     32 H32       -11.3729   -0.7291   58.2741 H       1  ZINC000654672208    0.0700
     33 H33       -12.6789   -0.8025   59.4813 H       1  ZINC000654672208    0.0700
     34 H34       -10.8796    1.3738   59.1271 H       1  ZINC000654672208    0.3900
     35 H35       -10.4031    2.8448   59.5367 H       1  ZINC000654672208    0.1000
     36 H36       -11.3749    4.1816   60.2048 H       1  ZINC000654672208    0.0700
     37 H37        -8.7126    3.1449   61.2831 H       1  ZINC000654672208    0.0700
     38 H38        -8.9977    4.7103   60.4840 H       1  ZINC000654672208    0.0800
     39 H39        -8.9405    4.9925   62.9373 H       1  ZINC000654672208    0.0800
     40 H40       -10.5695    5.3393   62.3096 H       1  ZINC000654672208    0.0800
     41 H41       -10.1043    4.9242   64.9488 H       1  ZINC000654672208    0.1000
     42 H42       -11.8049    4.4620   64.6936 H       1  ZINC000654672208    0.1000
     43 H43       -10.5579    3.4652   66.8173 H       1  ZINC000654672208    0.1400
     44 H44       -11.4875    2.3167   65.7956 H       1  ZINC000654672208    0.1400
     45 H45        -9.7689    1.4128   63.1297 H       1  ZINC000654672208    0.1400
     46 H46        -8.4457    2.6118   63.0231 H       1  ZINC000654672208    0.1400
     47 H47       -12.4417    3.6753   62.6710 H       1  ZINC000654672208    0.0800
     48 H48       -12.0463    2.0619   63.3176 H       1  ZINC000654672208    0.0800
     49 H49       -12.1165   -2.3987   57.2986 H       1  ZINC000654672208    0.0800
     50 H50       -12.0346   -4.1610   57.5348 H       1  ZINC000654672208    0.0700
     51 H51       -12.3346   -3.0899   58.9244 H       1  ZINC000654672208    0.0700
     52 H52        -9.7800   -4.3635   56.5739 H       1  ZINC000654672208    0.1300
@<TRIPOS>BOND
     1     1     2    1
     2     1    26    1
     3     1    27    1
     4     1    28    1
     5     2    25   ar
     6     2     3   ar
     7     3     4   ar
     8     3    29    1
     9     4     5   ar
    10     5     6    1
    11     5    23   ar
    12     6     7    1
    13     6    30    1
    14     6    31    1
    15     7     8    1
    16     7    32    1
    17     7    33    1
    18     8     9   am
    19     8    34    1
    20     9    10    2
    21     9    11   am
    22    11    22    1
    23    11    12    1
    24    12    13    1
    25    12    35    1
    26    12    36    1
    27    13    14    1
    28    13    37    1
    29    13    38    1
    30    14    15    1
    31    14    39    1
    32    14    40    1
    33    15    21    1
    34    15    16    1
    35    15    22    1
    36    16    17    1
    37    16    41    1
    38    16    42    1
    39    17    18    1
    40    17    43    1
    41    17    44    1
    42    18    19    2
    43    18    20    2
    44    18    21    1
    45    21    45    1
    46    21    46    1
    47    22    47    1
    48    22    48    1
    49    23    24    1
    50    23    25   ar
    51    24    49    1
    52    24    50    1
    53    24    51    1
    54    25    52    1
@<TRIPOS>SUBSTRUCTURE
     1 ZINC000654672208        1 TEMP              0 ****  ****    0 ROOT


##########                                Name:    ZINC000151303733
##########                DOCK_Rotatable_Bonds:                   7
##########                         Heavy_Atoms:                  26
##########                    Molecular_Weight:             369.444
##########                DOCK_Rotatable_Bonds:                   7
##########                       Formal_Charge:        -1.93715e-07
##########                     HBond_Acceptors:                   7
##########                        HBond_Donors:                   2
##########                         Heavy_Atoms:                  26
##########                          Grid_Score:          -26.249104
##########                     Grid_vdw_energy:          -23.292572
##########                      Grid_es_energy:           -2.956531
##########           Internal_energy_repulsive:           14.413907

@<TRIPOS>MOLECULE
ZINC000151303733
 45 48 1 0 0
SMALL
USER_CHARGES


@<TRIPOS>ATOM
      1 C1         -6.0687    4.3623   54.8056 C.3     1  ZINC000151303733   -0.1000
      2 C2         -5.0459    4.1450   55.8909 C.2     1  ZINC000151303733   -0.1200
      3 C3         -3.7344    4.1365   55.6495 C.2     1  ZINC000151303733   -0.2000
      4 S4         -2.8574    3.8562   57.1479 S.3     1  ZINC000151303733    0.1200
      5 C5         -4.3642    3.7625   58.0499 C.2     1  ZINC000151303733   -0.2400
      6 C6         -5.3969    3.9441   57.2186 C.2     1  ZINC000151303733    0.1200
      7 N7         -6.7347    3.9233   57.6549 N.am    1  ZINC000151303733   -0.6400
      8 C8         -7.0562    4.4180   58.8666 C.2     1  ZINC000151303733    0.5100
      9 O9         -6.1922    4.8811   59.5814 O.2     1  ZINC000151303733   -0.5100
     10 C10        -8.4887    4.3956   59.3338 C.3     1  ZINC000151303733    0.1000
     11 N11        -8.6705    3.3094   60.2999 N.am    1  ZINC000151303733   -0.7100
     12 C12        -9.8796    2.7321   60.4453 C.2     1  ZINC000151303733    0.5200
     13 O13       -10.8175    3.1128   59.7772 O.2     1  ZINC000151303733   -0.5100
     14 C14       -10.0661    1.6135   61.4377 C.3     1  ZINC000151303733    0.1600
     15 H15        -9.2501    1.6146   62.1604 H       1  ZINC000151303733    0.1300
     16 C16       -10.1214    0.2880   60.7204 C.ar    1  ZINC000151303733   -0.0900
     17 C17        -9.2304   -0.3882   59.9200 C.ar    1  ZINC000151303733   -0.0900
     18 C18        -9.5740   -1.6211   59.3903 C.ar    1  ZINC000151303733   -0.0800
     19 C19       -10.8118   -2.1751   59.6639 C.ar    1  ZINC000151303733   -0.1200
     20 C20       -11.7131   -1.5050   60.4655 C.ar    1  ZINC000151303733   -0.0400
     21 C21       -11.3740   -0.2623   61.0030 C.ar    1  ZINC000151303733   -0.1500
     22 C22       -12.1054    0.6764   61.8753 C.2     1  ZINC000151303733    0.5600
     23 O23       -13.2283    0.4950   62.3040 O.2     1  ZINC000151303733   -0.5100
     24 N24       -11.3520    1.7618   62.1288 N.am    1  ZINC000151303733   -0.5700
     25 C25       -11.7504    2.9025   62.9572 C.3     1  ZINC000151303733    0.0900
     26 C26       -11.3872    2.8576   64.4429 C.3     1  ZINC000151303733   -0.1800
     27 C27       -10.6393    3.8031   63.5008 C.3     1  ZINC000151303733   -0.1900
     28 H28        -6.2742    5.4283   54.7081 H       1  ZINC000151303733    0.0700
     29 H29        -5.6833    3.9788   53.8609 H       1  ZINC000151303733    0.0700
     30 H30        -6.9885    3.8371   55.0628 H       1  ZINC000151303733    0.0600
     31 H31        -3.2795    4.2796   54.6805 H       1  ZINC000151303733    0.1700
     32 H32        -4.4437    3.5891   59.1129 H       1  ZINC000151303733    0.2000
     33 H33        -7.4254    3.5528   57.0835 H       1  ZINC000151303733    0.4200
     34 H34        -8.7314    5.3471   59.8070 H       1  ZINC000151303733    0.1100
     35 H35        -9.1470    4.2362   58.4798 H       1  ZINC000151303733    0.1100
     36 H36        -7.9206    3.0058   60.8350 H       1  ZINC000151303733    0.4100
     37 H37        -8.2635    0.0420   59.7044 H       1  ZINC000151303733    0.1300
     38 H38        -8.8739   -2.1511   58.7616 H       1  ZINC000151303733    0.1400
     39 H39       -11.0740   -3.1365   59.2476 H       1  ZINC000151303733    0.1400
     40 H40       -12.6783   -1.9413   60.6769 H       1  ZINC000151303733    0.1400
     41 H41       -12.6933    3.3759   62.6835 H       1  ZINC000151303733    0.1400
     42 H42       -12.0913    3.3014   65.1468 H       1  ZINC000151303733    0.1000
     43 H43       -10.8519    1.9794   64.8038 H       1  ZINC000151303733    0.1300
     44 H44        -9.6120    3.5470   63.2419 H       1  ZINC000151303733    0.1000
     45 H45       -10.8514    4.8690   63.5848 H       1  ZINC000151303733    0.1000
@<TRIPOS>BOND
     1     1     2    1
     2     1    28    1
     3     1    29    1
     4     1    30    1
     5     2     6    1
     6     2     3    2
     7     3     4    1
     8     3    31    1
     9     4     5    1
    10     5     6    2
    11     5    32    1
    12     6     7    1
    13     7     8   am
    14     7    33    1
    15     8     9    2
    16     8    10    1
    17    10    11    1
    18    10    34    1
    19    10    35    1
    20    11    12   am
    21    11    36    1
    22    12    13    2
    23    12    14    1
    24    14    15    1
    25    14    24    1
    26    14    16    1
    27    16    21   ar
    28    16    17   ar
    29    17    18   ar
    30    17    37    1
    31    18    19   ar
    32    18    38    1
    33    19    20   ar
    34    19    39    1
    35    20    21   ar
    36    20    40    1
    37    21    22    1
    38    22    23    2
    39    22    24   am
    40    24    25    1
    41    25    27    1
    42    25    26    1
    43    25    41    1
    44    26    27    1
    45    26    42    1
    46    26    43    1
    47    27    44    1
    48    27    45    1
@<TRIPOS>SUBSTRUCTURE
     1 ZINC000151303733        1 TEMP              0 ****  ****    0 ROOT


##########                                Name:    ZINC001211202056
##########                DOCK_Rotatable_Bonds:                   4
##########                         Heavy_Atoms:                  23
##########                    Molecular_Weight:             386.181
##########                DOCK_Rotatable_Bonds:                   4
##########                       Formal_Charge:           0.0199999
##########                     HBond_Acceptors:                  11
##########                        HBond_Donors:                   3
##########                         Heavy_Atoms:                  23
##########                          Grid_Score:          -26.237614
##########                     Grid_vdw_energy:          -24.558084
##########                      Grid_es_energy:           -1.679528
##########           Internal_energy_repulsive:           16.220600

@<TRIPOS>MOLECULE
ZINC001211202056
 31 32 1 0 0
SMALL
USER_CHARGES


@<TRIPOS>ATOM
      1 N1         -0.2024    1.2340   59.6914 N.pl3   1  ZINC001211202056   -0.8500
      2 C2         -0.5834    2.1266   58.6858 C.ar    1  ZINC001211202056    0.2900
      3 C3         -1.8768    2.0962   58.1820 C.ar    1  ZINC001211202056   -0.2000
      4 C4         -2.2504    2.9798   57.1878 C.ar    1  ZINC001211202056    0.0400
      5 C5         -1.3383    3.8938   56.6939 C.ar    1  ZINC001211202056   -0.7300
      6 S6         -1.8196    5.0186   55.4260 S.o2    1  ZINC001211202056    2.6900
      7 O7         -2.9341    5.7406   55.9320 O.2     1  ZINC001211202056   -0.9400
      8 O8         -0.6279    5.6461   54.9728 O.2     1  ZINC001211202056   -0.9300
      9 N9         -2.3840    4.1155   54.1579 N.am    1  ZINC001211202056   -1.0500
     10 C10        -1.5460    3.1880   53.5327 C.ar    1  ZINC001211202056    0.1600
     11 C11        -0.2111    3.0749   53.9106 C.ar    1  ZINC001211202056   -0.1200
     12 C12         0.5803    2.1403   53.2617 C.ar    1  ZINC001211202056   -0.0800
     13 C13         0.0239    1.3570   52.2687 C.ar    1  ZINC001211202056    0.0400
     14 C14         0.8790    0.3389   51.5592 C.3     1  ZINC001211202056    0.5300
     15 F15         0.3517    0.0921   50.2872 F       1  ZINC001211202056   -0.1700
     16 F16         2.1833    0.8298   51.4361 F       1  ZINC001211202056   -0.1600
     17 F17         0.8961   -0.8504   52.2958 F       1  ZINC001211202056   -0.1700
     18 N18        -1.2452    1.4873   51.9329 N.ar    1  ZINC001211202056   -0.4100
     19 C19        -2.0347    2.3602   52.5276 C.ar    1  ZINC001211202056    0.1600
     20 Cl20       -3.6970    2.4858   52.0429 Cl      1  ZINC001211202056    0.0000
     21 C21        -0.0487    3.9275   57.1931 C.ar    1  ZINC001211202056    0.0400
     22 C22         0.3300    3.0508   58.1917 C.ar    1  ZINC001211202056   -0.1400
     23 Cl23        1.9486    3.0935   58.8179 Cl      1  ZINC001211202056   -0.0500
     24 H24         0.7004    1.2589   60.0455 H       1  ZINC001211202056    0.4100
     25 H25        -0.8418    0.5923   60.0381 H       1  ZINC001211202056    0.4100
     26 H26        -2.5900    1.3822   58.5665 H       1  ZINC001211202056    0.1400
     27 H27        -3.2564    2.9564   56.7956 H       1  ZINC001211202056    0.1500
     28 H28        -3.2964    4.2303   53.8490 H       1  ZINC001211202056    0.4400
     29 H29         0.1980    3.7005   54.6902 H       1  ZINC001211202056    0.2000
     30 H30         1.6203    2.0257   53.5290 H       1  ZINC001211202056    0.1700
     31 H31         0.6615    4.6427   56.8051 H       1  ZINC001211202056    0.1500
@<TRIPOS>BOND
     1     1     2    1
     2     1    24    1
     3     1    25    1
     4     2    22   ar
     5     2     3   ar
     6     3     4   ar
     7     3    26    1
     8     4     5   ar
     9     4    27    1
    10     5     6    1
    11     5    21   ar
    12     6     7    2
    13     6     8    2
    14     6     9   am
    15     9    10    1
    16     9    28    1
    17    10    19   ar
    18    10    11   ar
    19    11    12   ar
    20    11    29    1
    21    12    13   ar
    22    12    30    1
    23    13    14    1
    24    13    18   ar
    25    14    15    1
    26    14    16    1
    27    14    17    1
    28    18    19   ar
    29    19    20    1
    30    21    22   ar
    31    21    31    1
    32    22    23    1
@<TRIPOS>SUBSTRUCTURE
     1 ZINC001211202056        1 TEMP              0 ****  ****    0 ROOT


##########                                Name:    ZINC001345266033
##########                DOCK_Rotatable_Bonds:                   4
##########                         Heavy_Atoms:                  29
##########                    Molecular_Weight:               389.5
##########                DOCK_Rotatable_Bonds:                   4
##########                       Formal_Charge:          -0.0100001
##########                     HBond_Acceptors:                   6
##########                        HBond_Donors:                   0
##########                         Heavy_Atoms:                  29
##########                          Grid_Score:          -26.237528
##########                     Grid_vdw_energy:          -23.929924
##########                      Grid_es_energy:           -2.307603
##########           Internal_energy_repulsive:           42.207783

@<TRIPOS>MOLECULE
ZINC001345266033
 56 61 1 0 0
SMALL
USER_CHARGES


@<TRIPOS>ATOM
      1 C1        -12.8563   -2.4837   56.8214 C.ar    1  ZINC001345266033   -0.1100
      2 C2        -13.4434   -1.5706   57.6935 C.ar    1  ZINC001345266033   -0.0900
      3 C3        -12.8025   -1.1752   58.8315 C.ar    1  ZINC001345266033   -0.1100
      4 C4        -11.5396   -1.6955   59.1239 C.ar    1  ZINC001345266033    0.0000
      5 C5        -10.9379   -2.6265   58.2385 C.ar    1  ZINC001345266033   -0.1100
      6 C6        -11.6259   -3.0103   57.0770 C.ar    1  ZINC001345266033   -0.0900
      7 C7         -9.6679   -3.1342   58.5570 C.ar    1  ZINC001345266033    0.1700
      8 N8         -9.0469   -2.7587   59.6490 N.ar    1  ZINC001345266033   -0.4800
      9 C9         -9.5471   -1.8962   60.5180 C.ar    1  ZINC001345266033    0.0900
     10 C10       -10.7950   -1.3179   60.3246 C.ar    1  ZINC001345266033   -0.0700
     11 C11       -11.3496   -0.3562   61.2961 C.2     1  ZINC001345266033    0.2300
     12 N12       -12.4801   -0.4755   61.9552 N.2     1  ZINC001345266033   -0.2600
     13 N13       -12.6528    0.5452   62.7166 N.2     1  ZINC001345266033   -0.3000
     14 C14       -11.6443    1.3783   62.5909 C.2     1  ZINC001345266033    0.3600
     15 N15       -11.4872    2.5822   63.2545 N.3     1  ZINC001345266033   -0.4600
     16 C16       -12.7733    3.2748   63.3992 C.3     1  ZINC001345266033    0.0600
     17 C17       -12.5452    4.6905   63.9325 C.3     1  ZINC001345266033   -0.1100
     18 C18       -11.9055    4.6083   65.3237 C.3     1  ZINC001345266033   -0.0800
     19 C19       -10.6412    3.7477   65.2277 C.3     1  ZINC001345266033   -0.1300
     20 C20        -9.3099    4.4629   65.0029 C.3     1  ZINC001345266033   -0.1600
     21 C21        -9.6268    3.8433   66.3659 C.3     1  ZINC001345266033   -0.1700
     22 C22       -10.8403    2.3838   64.5601 C.3     1  ZINC001345266033    0.1100
     23 N23       -10.7779    0.8328   61.6883 N.pl3   1  ZINC001345266033   -0.4600
     24 C24        -9.5081    1.3991   61.2267 C.3     1  ZINC001345266033    0.1000
     25 C25        -9.7568    2.2718   59.9948 C.3     1  ZINC001345266033   -0.1400
     26 H26        -8.8283    2.7376   59.6646 H       1  ZINC001345266033    0.1000
     27 C27       -10.8247    3.3500   60.3014 C.3     1  ZINC001345266033   -0.1500
     28 C28       -11.6586    3.3618   58.9948 C.3     1  ZINC001345266033    0.0500
     29 O29       -11.6870    1.9730   58.6010 O.3     1  ZINC001345266033   -0.3700
     30 C30       -10.3751    1.4359   58.8575 C.3     1  ZINC001345266033    0.0300
     31 H31       -13.3871   -2.7830   55.9296 H       1  ZINC001345266033    0.1300
     32 H32       -14.4200   -1.1693   57.4659 H       1  ZINC001345266033    0.1300
     33 H33       -13.2675   -0.4659   59.5000 H       1  ZINC001345266033    0.1600
     34 H34       -11.1837   -3.7180   56.3915 H       1  ZINC001345266033    0.1400
     35 H35        -9.1964   -3.8439   57.8934 H       1  ZINC001345266033    0.1700
     36 H36        -8.9740   -1.6367   61.3959 H       1  ZINC001345266033    0.1700
     37 H37       -13.2668    3.3286   62.4288 H       1  ZINC001345266033    0.0700
     38 H38       -13.4053    2.7232   64.0952 H       1  ZINC001345266033    0.0500
     39 H39       -11.8814    5.2312   63.2579 H       1  ZINC001345266033    0.0800
     40 H40       -13.4997    5.2121   64.0010 H       1  ZINC001345266033    0.0800
     41 H41       -11.6419    5.6092   65.6653 H       1  ZINC001345266033    0.0700
     42 H42       -12.6066    4.1523   66.0226 H       1  ZINC001345266033    0.0700
     43 H43        -8.5674    3.9612   64.3823 H       1  ZINC001345266033    0.0900
     44 H44        -9.3290    5.5502   64.9275 H       1  ZINC001345266033    0.0900
     45 H45        -9.8544    4.5229   67.1872 H       1  ZINC001345266033    0.1000
     46 H46        -9.0929    2.9340   66.6420 H       1  ZINC001345266033    0.1000
     47 H47       -11.4729    1.7582   65.1896 H       1  ZINC001345266033    0.0600
     48 H48        -9.8728    1.9020   64.4186 H       1  ZINC001345266033    0.0800
     49 H49        -9.0713    2.0062   62.0197 H       1  ZINC001345266033    0.1100
     50 H50        -8.8230    0.5919   60.9678 H       1  ZINC001345266033    0.1100
     51 H51       -11.4395    3.0576   61.1526 H       1  ZINC001345266033    0.0800
     52 H52       -10.3592    4.3204   60.4745 H       1  ZINC001345266033    0.0900
     53 H53       -12.6674    3.7271   59.1866 H       1  ZINC001345266033    0.1000
     54 H54       -11.1685    3.9670   58.2322 H       1  ZINC001345266033    0.0600
     55 H55        -9.7610    1.5135   57.9604 H       1  ZINC001345266033    0.0600
     56 H56       -10.4551    0.3934   59.1653 H       1  ZINC001345266033    0.0900
@<TRIPOS>BOND
     1     1     6   ar
     2     1     2   ar
     3     1    31    1
     4     2     3   ar
     5     2    32    1
     6     3     4   ar
     7     3    33    1
     8     4    10   ar
     9     4     5   ar
    10     5     6   ar
    11     5     7   ar
    12     6    34    1
    13     7     8   ar
    14     7    35    1
    15     8     9   ar
    16     9    10   ar
    17     9    36    1
    18    10    11    1
    19    11    23    1
    20    11    12    2
    21    12    13    1
    22    13    14    2
    23    14    15    1
    24    14    23    1
    25    15    22    1
    26    15    16    1
    27    16    17    1
    28    16    37    1
    29    16    38    1
    30    17    18    1
    31    17    39    1
    32    17    40    1
    33    18    19    1
    34    18    41    1
    35    18    42    1
    36    19    21    1
    37    19    20    1
    38    19    22    1
    39    20    21    1
    40    20    43    1
    41    20    44    1
    42    21    45    1
    43    21    46    1
    44    22    47    1
    45    22    48    1
    46    23    24    1
    47    24    25    1
    48    24    49    1
    49    24    50    1
    50    25    26    1
    51    25    30    1
    52    25    27    1
    53    27    28    1
    54    27    51    1
    55    27    52    1
    56    28    29    1
    57    28    53    1
    58    28    54    1
    59    29    30    1
    60    30    55    1
    61    30    56    1
@<TRIPOS>SUBSTRUCTURE
     1 ZINC001345266033        1 TEMP              0 ****  ****    0 ROOT


##########                                Name:    ZINC000538774026
##########                DOCK_Rotatable_Bonds:                  10
##########                         Heavy_Atoms:                  29
##########                    Molecular_Weight:             414.496
##########                DOCK_Rotatable_Bonds:                  10
##########                       Formal_Charge:            0.049999
##########                     HBond_Acceptors:                   9
##########                        HBond_Donors:                   2
##########                         Heavy_Atoms:                  29
##########                          Grid_Score:          -26.143333
##########                     Grid_vdw_energy:          -24.261740
##########                      Grid_es_energy:           -1.881594
##########           Internal_energy_repulsive:           36.317715

@<TRIPOS>MOLECULE
ZINC000538774026
 61 62 1 0 0
SMALL
USER_CHARGES


@<TRIPOS>ATOM
      1 C1         -0.1941    2.0906   64.7376 C.3     1  ZINC000538774026   -0.1500
      2 C2          1.1571    1.5006   64.3286 C.3     1  ZINC000538774026   -0.1100
      3 C3          0.9320    0.2082   63.5414 C.3     1  ZINC000538774026   -0.1400
      4 C4          1.9088    2.5061   63.4541 C.3     1  ZINC000538774026    0.1400
      5 N5          1.0230    2.9864   62.3906 N.pl3   1  ZINC000538774026   -0.3400
      6 N6          0.0215    3.9562   62.5270 N.2     1  ZINC000538774026   -0.2500
      7 C7         -0.5550    4.1198   61.3638 C.2     1  ZINC000538774026    0.0500
      8 C8          0.0588    3.2593   60.4422 C.2     1  ZINC000538774026    0.0800
      9 N9         -0.2713    3.1324   59.0789 N.am    1  ZINC000538774026   -0.6600
     10 C10         0.2240    4.0075   58.1814 C.2     1  ZINC000538774026    0.7100
     11 O11         0.9571    4.9055   58.5486 O.2     1  ZINC000538774026   -0.5700
     12 N12        -0.0932    3.8871   56.8771 N.am    1  ZINC000538774026   -0.7300
     13 C13         0.4438    4.8394   55.9018 C.3     1  ZINC000538774026    0.1600
     14 C14         1.6507    4.2192   55.1947 C.3     1  ZINC000538774026   -0.1300
     15 C15         1.2181    2.9407   54.4742 C.3     1  ZINC000538774026   -0.1000
     16 C16         0.1396    3.2767   53.4424 C.3     1  ZINC000538774026   -0.0800
     17 C17        -0.2864    2.0173   52.7327 C.2     1  ZINC000538774026    0.4700
     18 O18        -1.3072    2.0040   52.0863 O.2     1  ZINC000538774026   -0.5000
     19 O19         0.4681    0.9105   52.8187 O.3     1  ZINC000538774026   -0.3500
     20 C20         1.3262    0.6082   51.6871 C.3     1  ZINC000538774026    0.1200
     21 C21         1.7424    1.9105   51.0003 C.3     1  ZINC000538774026   -0.1800
     22 C22         2.5730   -0.1317   52.1759 C.3     1  ZINC000538774026   -0.1400
     23 C23         0.5674   -0.2729   50.6927 C.3     1  ZINC000538774026   -0.1800
     24 C24        -1.0672    3.8968   54.1494 C.3     1  ZINC000538774026   -0.1100
     25 C25        -0.6347    5.1754   54.8698 C.3     1  ZINC000538774026   -0.1300
     26 C26         1.0314    2.5746   61.0960 C.2     1  ZINC000538774026   -0.0500
     27 C27         1.9479    1.5391   60.4970 C.3     1  ZINC000538774026    0.3500
     28 F28         1.7057    1.4412   59.1226 F       1  ZINC000538774026   -0.1900
     29 F29         3.2785    1.9148   60.7104 F       1  ZINC000538774026   -0.1900
     30 H30        -0.7297    1.3743   65.3606 H       1  ZINC000538774026    0.0600
     31 H31        -0.0337    3.0113   65.2984 H       1  ZINC000538774026    0.0600
     32 H32        -0.7814    2.3064   63.8451 H       1  ZINC000538774026    0.0600
     33 H33         1.7445    1.2848   65.2211 H       1  ZINC000538774026    0.0800
     34 H34         0.3447    0.4240   62.6489 H       1  ZINC000538774026    0.0600
     35 H35         1.8946   -0.2120   63.2499 H       1  ZINC000538774026    0.0600
     36 H36         0.3964   -0.5081   64.1644 H       1  ZINC000538774026    0.0600
     37 H37         2.2325    3.3485   64.0654 H       1  ZINC000538774026    0.1000
     38 H38         2.7795    2.0229   63.0111 H       1  ZINC000538774026    0.1000
     39 H39        -1.3653    4.8010   61.1501 H       1  ZINC000538774026    0.2100
     40 H40        -0.8551    2.4154   58.7858 H       1  ZINC000538774026    0.4100
     41 H41        -0.6770    3.1701   56.5840 H       1  ZINC000538774026    0.4000
     42 H42         0.7519    5.7502   56.4150 H       1  ZINC000538774026    0.1000
     43 H43         2.0502    4.9277   54.4691 H       1  ZINC000538774026    0.0800
     44 H44         2.4190    3.9799   55.9298 H       1  ZINC000538774026    0.0800
     45 H45         2.0779    2.4989   53.9705 H       1  ZINC000538774026    0.0700
     46 H46         0.8186    2.2322   55.1998 H       1  ZINC000538774026    0.0700
     47 H47         0.5392    3.9851   52.7167 H       1  ZINC000538774026    0.1100
     48 H48         2.2829    2.5382   51.7088 H       1  ZINC000538774026    0.0600
     49 H49         2.3866    1.6835   50.1509 H       1  ZINC000538774026    0.0700
     50 H50         0.8542    2.4375   50.6521 H       1  ZINC000538774026    0.0800
     51 H51         2.2766   -1.0595   52.6652 H       1  ZINC000538774026    0.0700
     52 H52         3.2172   -0.3586   51.3265 H       1  ZINC000538774026    0.0800
     53 H53         3.1136    0.4960   52.8844 H       1  ZINC000538774026    0.0700
     54 H54        -0.3208    0.2541   50.3445 H       1  ZINC000538774026    0.0800
     55 H55         1.2116   -0.4999   49.8432 H       1  ZINC000538774026    0.0700
     56 H56         0.2709   -1.2008   51.1820 H       1  ZINC000538774026    0.0600
     57 H57        -1.8355    4.1361   53.4143 H       1  ZINC000538774026    0.0800
     58 H58        -1.4667    3.1883   54.8751 H       1  ZINC000538774026    0.0600
     59 H59        -1.4945    5.6171   55.3736 H       1  ZINC000538774026    0.0800
     60 H60        -0.2351    5.8838   54.1442 H       1  ZINC000538774026    0.0900
     61 H61         1.7628    0.5739   60.9682 H       1  ZINC000538774026    0.1300
@<TRIPOS>BOND
     1     1     2    1
     2     1    30    1
     3     1    31    1
     4     1    32    1
     5     2     3    1
     6     2     4    1
     7     2    33    1
     8     3    34    1
     9     3    35    1
    10     3    36    1
    11     4     5    1
    12     4    37    1
    13     4    38    1
    14     5    26    1
    15     5     6    1
    16     6     7    2
    17     7     8    1
    18     7    39    1
    19     8     9    1
    20     8    26    2
    21     9    10   am
    22     9    40    1
    23    10    11    2
    24    10    12   am
    25    12    13    1
    26    12    41    1
    27    13    25    1
    28    13    14    1
    29    13    42    1
    30    14    15    1
    31    14    43    1
    32    14    44    1
    33    15    16    1
    34    15    45    1
    35    15    46    1
    36    16    17    1
    37    16    24    1
    38    16    47    1
    39    17    18    2
    40    17    19    1
    41    19    20    1
    42    20    21    1
    43    20    22    1
    44    20    23    1
    45    21    48    1
    46    21    49    1
    47    21    50    1
    48    22    51    1
    49    22    52    1
    50    22    53    1
    51    23    54    1
    52    23    55    1
    53    23    56    1
    54    24    25    1
    55    24    57    1
    56    24    58    1
    57    25    59    1
    58    25    60    1
    59    26    27    1
    60    27    28    1
    61    27    29    1
    62    27    61    1
@<TRIPOS>SUBSTRUCTURE
     1 ZINC000538774026        1 TEMP              0 ****  ****    0 ROOT


##########                                Name:    ZINC000523153175
##########                DOCK_Rotatable_Bonds:                   9
##########                         Heavy_Atoms:                  30
##########                    Molecular_Weight:             413.603
##########                DOCK_Rotatable_Bonds:                   9
##########                       Formal_Charge:           0.0499987
##########                     HBond_Acceptors:                   5
##########                        HBond_Donors:                   1
##########                         Heavy_Atoms:                  30
##########                          Grid_Score:          -26.142698
##########                     Grid_vdw_energy:          -27.240677
##########                      Grid_es_energy:            1.097979
##########           Internal_energy_repulsive:           47.405128

@<TRIPOS>MOLECULE
ZINC000523153175
 69 71 1 0 0
SMALL
USER_CHARGES


@<TRIPOS>ATOM
      1 C1         -6.6497    5.0573   58.6448 C.3     1  ZINC000523153175   -0.1500
      2 C2         -8.0397    5.4556   59.1451 C.3     1  ZINC000523153175   -0.0600
      3 C3         -8.9681    5.6769   57.9494 C.3     1  ZINC000523153175   -0.1400
      4 C4         -8.5941    4.3571   60.0151 C.ar    1  ZINC000523153175   -0.0800
      5 C5         -9.3372    3.3371   59.4509 C.ar    1  ZINC000523153175   -0.1100
      6 C6         -9.8458    2.3295   60.2489 C.ar    1  ZINC000523153175   -0.1100
      7 C7         -9.6111    2.3416   61.6112 C.ar    1  ZINC000523153175   -0.0800
      8 C8        -10.1660    1.2434   62.4812 C.3     1  ZINC000523153175   -0.0300
      9 H9         -9.3680    0.5483   62.7421 H       1  ZINC000523153175    0.0800
     10 C10       -10.7511    1.8506   63.7578 C.3     1  ZINC000523153175   -0.1500
     11 C11       -11.2645    0.4970   61.7216 C.3     1  ZINC000523153175   -0.1300
     12 C12       -10.6476   -0.6091   60.9049 C.2     1  ZINC000523153175    0.5200
     13 O13        -9.4413   -0.6975   60.8167 O.2     1  ZINC000523153175   -0.5300
     14 N14       -11.4365   -1.5003   60.2724 N.am    1  ZINC000523153175   -0.6200
     15 C15       -12.9019   -1.4067   60.3597 C.3     1  ZINC000523153175    0.1100
     16 C16       -13.4777   -1.4496   58.9403 C.3     1  ZINC000523153175    0.0400
     17 N17       -12.9716   -2.6410   58.2457 N.3     1  ZINC000523153175   -0.5100
     18 C18       -13.6321   -2.8121   56.9447 C.3     1  ZINC000523153175    0.0600
     19 H19       -12.9129   -3.1924   56.2193 H       1  ZINC000523153175    0.1100
     20 C20       -14.7875   -3.8050   57.0860 C.3     1  ZINC000523153175   -0.1800
     21 C21       -14.1660   -1.4837   56.4739 C.2     1  ZINC000523153175    0.5200
     22 O22       -15.3304   -1.1988   56.6570 O.2     1  ZINC000523153175   -0.5200
     23 N23       -13.3491   -0.6124   55.8493 N.am    1  ZINC000523153175   -0.7200
     24 C24       -13.8676    0.6796   55.3931 C.3     1  ZINC000523153175    0.1400
     25 C25       -13.5928    1.7641   56.4552 C.3     1  ZINC000523153175   -0.1300
     26 C26       -12.2768    2.4318   55.9848 C.3     1  ZINC000523153175   -0.1300
     27 C27       -12.4382    2.4575   54.4445 C.3     1  ZINC000523153175   -0.1300
     28 C28       -13.1335    1.1205   54.1146 C.3     1  ZINC000523153175   -0.1300
     29 C29       -11.5117   -2.5882   58.0920 C.3     1  ZINC000523153175    0.0400
     30 C30       -10.8553   -2.5884   59.4716 C.3     1  ZINC000523153175    0.1200
     31 C31        -8.8669    3.3609   62.1751 C.ar    1  ZINC000523153175   -0.1100
     32 C32        -8.3550    4.3665   61.3766 C.ar    1  ZINC000523153175   -0.1200
     33 H33        -6.2486    5.8518   58.0155 H       1  ZINC000523153175    0.0600
     34 H34        -5.9883    4.8996   59.4967 H       1  ZINC000523153175    0.0600
     35 H35        -6.7220    4.1367   58.0657 H       1  ZINC000523153175    0.0600
     36 H36        -7.9673    6.3762   59.7242 H       1  ZINC000523153175    0.0800
     37 H37        -9.0404    4.7563   57.3703 H       1  ZINC000523153175    0.0600
     38 H38        -9.9583    5.9606   58.3058 H       1  ZINC000523153175    0.0600
     39 H39        -8.5670    6.4714   57.3201 H       1  ZINC000523153175    0.0600
     40 H40        -9.5206    3.3276   58.3866 H       1  ZINC000523153175    0.1200
     41 H41       -10.4270    1.5329   59.8082 H       1  ZINC000523153175    0.1200
     42 H42       -11.1526    1.0563   64.3871 H       1  ZINC000523153175    0.0800
     43 H43        -9.9685    2.3825   64.2990 H       1  ZINC000523153175    0.0600
     44 H44       -11.5491    2.5458   63.4968 H       1  ZINC000523153175    0.0500
     45 H45       -11.9733    0.0719   62.4323 H       1  ZINC000523153175    0.0900
     46 H46       -11.7844    1.1902   61.0603 H       1  ZINC000523153175    0.0900
     47 H47       -13.2885   -2.2464   60.9373 H       1  ZINC000523153175    0.0800
     48 H48       -13.1809   -0.4688   60.8399 H       1  ZINC000523153175    0.0900
     49 H49       -14.5658   -1.4925   58.9903 H       1  ZINC000523153175    0.0900
     50 H50       -13.1732   -0.5551   58.3970 H       1  ZINC000523153175    0.0400
     51 H51       -15.5068   -3.4247   57.8114 H       1  ZINC000523153175    0.0700
     52 H52       -15.2776   -3.9319   56.1207 H       1  ZINC000523153175    0.0700
     53 H53       -14.4014   -4.7658   57.4266 H       1  ZINC000523153175    0.0700
     54 H54       -12.4180   -0.8408   55.7018 H       1  ZINC000523153175    0.4000
     55 H55       -14.9382    0.6057   55.2022 H       1  ZINC000523153175    0.0900
     56 H56       -14.4038    2.4921   56.4759 H       1  ZINC000523153175    0.0700
     57 H57       -13.4606    1.3109   57.4378 H       1  ZINC000523153175    0.0700
     58 H58       -12.1937    3.4436   56.3814 H       1  ZINC000523153175    0.0700
     59 H59       -11.4142    1.8308   56.2728 H       1  ZINC000523153175    0.0700
     60 H60       -13.0627    3.2974   54.1404 H       1  ZINC000523153175    0.0700
     61 H61       -11.4634    2.5103   53.9596 H       1  ZINC000523153175    0.0700
     62 H62       -12.3914    0.3731   53.8336 H       1  ZINC000523153175    0.0700
     63 H63       -13.8480    1.2613   53.3036 H       1  ZINC000523153175    0.0800
     64 H64       -11.1739   -3.4569   57.5269 H       1  ZINC000523153175    0.1000
     65 H65       -11.2346   -1.6778   57.5605 H       1  ZINC000523153175    0.0400
     66 H66        -9.7814   -2.4341   59.3662 H       1  ZINC000523153175    0.1000
     67 H67       -11.0443   -3.5408   59.9669 H       1  ZINC000523153175    0.0800
     68 H68        -8.6831    3.3702   63.2394 H       1  ZINC000523153175    0.1200
     69 H69        -7.7735    5.1627   61.8172 H       1  ZINC000523153175    0.1200
@<TRIPOS>BOND
     1     1     2    1
     2     1    33    1
     3     1    34    1
     4     1    35    1
     5     2     3    1
     6     2     4    1
     7     2    36    1
     8     3    37    1
     9     3    38    1
    10     3    39    1
    11     4    32   ar
    12     4     5   ar
    13     5     6   ar
    14     5    40    1
    15     6     7   ar
    16     6    41    1
    17     7     8    1
    18     7    31   ar
    19     8     9    1
    20     8    10    1
    21     8    11    1
    22    10    42    1
    23    10    43    1
    24    10    44    1
    25    11    12    1
    26    11    45    1
    27    11    46    1
    28    12    13    2
    29    12    14   am
    30    14    30    1
    31    14    15    1
    32    15    16    1
    33    15    47    1
    34    15    48    1
    35    16    17    1
    36    16    49    1
    37    16    50    1
    38    17    18    1
    39    17    29    1
    40    18    19    1
    41    18    20    1
    42    18    21    1
    43    20    51    1
    44    20    52    1
    45    20    53    1
    46    21    22    2
    47    21    23   am
    48    23    24    1
    49    23    54    1
    50    24    28    1
    51    24    25    1
    52    24    55    1
    53    25    26    1
    54    25    56    1
    55    25    57    1
    56    26    27    1
    57    26    58    1
    58    26    59    1
    59    27    28    1
    60    27    60    1
    61    27    61    1
    62    28    62    1
    63    28    63    1
    64    29    30    1
    65    29    64    1
    66    29    65    1
    67    30    66    1
    68    30    67    1
    69    31    32   ar
    70    31    68    1
    71    32    69    1
@<TRIPOS>SUBSTRUCTURE
     1 ZINC000523153175        1 TEMP              0 ****  ****    0 ROOT


##########                                Name:    ZINC000676564986
##########                DOCK_Rotatable_Bonds:                   5
##########                         Heavy_Atoms:                  25
##########                    Molecular_Weight:             347.444
##########                DOCK_Rotatable_Bonds:                   5
##########                       Formal_Charge:          -0.0100005
##########                     HBond_Acceptors:                   6
##########                        HBond_Donors:                   1
##########                         Heavy_Atoms:                  25
##########                          Grid_Score:          -26.128994
##########                     Grid_vdw_energy:          -25.237413
##########                      Grid_es_energy:           -0.891580
##########           Internal_energy_repulsive:           14.472249

@<TRIPOS>MOLECULE
ZINC000676564986
 42 45 1 0 0
SMALL
USER_CHARGES


@<TRIPOS>ATOM
      1 C1         -7.4538    6.3776   58.0062 C.3     1  ZINC000676564986    0.0800
      2 N2         -7.9798    5.3463   58.9040 N.pl3   1  ZINC000676564986   -0.4800
      3 C3         -7.4064    4.9178   60.0641 C.2     1  ZINC000676564986    0.2500
      4 N4         -8.1418    3.9921   60.6081 N.2     1  ZINC000676564986   -0.4600
      5 C5         -9.2306    3.7681   59.8338 C.ar    1  ZINC000676564986   -0.1100
      6 C6        -10.3398    2.9092   59.9132 C.ar    1  ZINC000676564986    0.5100
      7 N7        -10.4834    2.0346   60.9760 N.pl3   1  ZINC000676564986   -0.6900
      8 C8        -11.6440    1.1429   61.0392 C.3     1  ZINC000676564986    0.1700
      9 C9        -11.3452   -0.1250   60.2813 C.ar    1  ZINC000676564986   -0.0800
     10 C10       -10.1071   -0.3000   59.6905 C.ar    1  ZINC000676564986   -0.1100
     11 C11        -9.8298   -1.4604   58.9954 C.ar    1  ZINC000676564986   -0.0700
     12 C12       -10.7967   -2.4531   58.8898 C.ar    1  ZINC000676564986   -0.1300
     13 S13       -10.4471   -3.9357   58.0042 S.3     1  ZINC000676564986   -0.0100
     14 C14        -8.7022   -3.8568   57.7721 C.ar    1  ZINC000676564986   -0.1000
     15 C15        -8.1650   -3.9450   56.4935 C.ar    1  ZINC000676564986   -0.1200
     16 C16        -6.7972   -3.8823   56.3153 C.ar    1  ZINC000676564986   -0.1000
     17 C17        -5.9620   -3.7319   57.4074 C.ar    1  ZINC000676564986   -0.1200
     18 C18        -6.4931   -3.6438   58.6814 C.ar    1  ZINC000676564986   -0.1000
     19 C19        -7.8603   -3.7005   58.8666 C.ar    1  ZINC000676564986   -0.1000
     20 C20       -12.0397   -2.2737   59.4847 C.ar    1  ZINC000676564986   -0.0700
     21 C21       -12.3080   -1.1131   60.1831 C.ar    1  ZINC000676564986   -0.1100
     22 N22       -11.2480    2.9566   58.9440 N.ar    1  ZINC000676564986   -0.5900
     23 C23       -11.1196    3.7882   57.9265 C.ar    1  ZINC000676564986    0.3600
     24 N24       -10.0977    4.6102   57.8103 N.ar    1  ZINC000676564986   -0.5600
     25 C25        -9.1429    4.6385   58.7341 C.ar    1  ZINC000676564986    0.3000
     26 H26        -7.8373    7.3522   58.3083 H       1  ZINC000676564986    0.0800
     27 H27        -6.3650    6.3837   58.0582 H       1  ZINC000676564986    0.0900
     28 H28        -7.7677    6.1645   56.9844 H       1  ZINC000676564986    0.0900
     29 H29        -6.4785    5.2912   60.4714 H       1  ZINC000676564986    0.2200
     30 H30        -9.8156    2.0119   61.6791 H       1  ZINC000676564986    0.4200
     31 H31       -11.8608    0.9018   62.0798 H       1  ZINC000676564986    0.0800
     32 H32       -12.5071    1.6376   60.5936 H       1  ZINC000676564986    0.0800
     33 H33        -9.3562    0.4719   59.7728 H       1  ZINC000676564986    0.1300
     34 H34        -8.8628   -1.5964   58.5340 H       1  ZINC000676564986    0.1400
     35 H35        -8.8166   -4.0627   55.6402 H       1  ZINC000676564986    0.1200
     36 H36        -6.3791   -3.9511   55.3219 H       1  ZINC000676564986    0.1300
     37 H37        -4.8926   -3.6835   57.2650 H       1  ZINC000676564986    0.1300
     38 H38        -5.8380   -3.5265   59.5318 H       1  ZINC000676564986    0.1300
     39 H39        -8.2744   -3.6313   59.8617 H       1  ZINC000676564986    0.1300
     40 H40       -12.7935   -3.0429   59.4046 H       1  ZINC000676564986    0.1300
     41 H41       -13.2738   -0.9730   60.6456 H       1  ZINC000676564986    0.1300
     42 H42       -11.8809    3.7940   57.1605 H       1  ZINC000676564986    0.2000
@<TRIPOS>BOND
     1     1     2    1
     2     1    26    1
     3     1    27    1
     4     1    28    1
     5     2    25    1
     6     2     3    1
     7     3     4    2
     8     3    29    1
     9     4     5    1
    10     5    25   ar
    11     5     6   ar
    12     6     7    1
    13     6    22   ar
    14     7     8    1
    15     7    30    1
    16     8     9    1
    17     8    31    1
    18     8    32    1
    19     9    21   ar
    20     9    10   ar
    21    10    11   ar
    22    10    33    1
    23    11    12   ar
    24    11    34    1
    25    12    13    1
    26    12    20   ar
    27    13    14    1
    28    14    19   ar
    29    14    15   ar
    30    15    16   ar
    31    15    35    1
    32    16    17   ar
    33    16    36    1
    34    17    18   ar
    35    17    37    1
    36    18    19   ar
    37    18    38    1
    38    19    39    1
    39    20    21   ar
    40    20    40    1
    41    21    41    1
    42    22    23   ar
    43    23    24   ar
    44    23    42    1
    45    24    25   ar
@<TRIPOS>SUBSTRUCTURE
     1 ZINC000676564986        1 TEMP              0 ****  ****    0 ROOT


##########                                Name:    ZINC000518937710
##########                DOCK_Rotatable_Bonds:                   6
##########                         Heavy_Atoms:                  25
##########                    Molecular_Weight:             397.421
##########                DOCK_Rotatable_Bonds:                   6
##########                       Formal_Charge:          -0.0199997
##########                     HBond_Acceptors:                  11
##########                        HBond_Donors:                   0
##########                         Heavy_Atoms:                  25
##########                          Grid_Score:          -26.100662
##########                     Grid_vdw_energy:          -21.858877
##########                      Grid_es_energy:           -4.241785
##########           Internal_energy_repulsive:           50.240257

@<TRIPOS>MOLECULE
ZINC000518937710
 42 44 1 0 0
SMALL
USER_CHARGES


@<TRIPOS>ATOM
      1 C1        -10.7271    2.1768   59.1542 C.3     1  ZINC000518937710   -0.1900
      2 C2        -11.3060    1.7289   60.4978 C.3     1  ZINC000518937710    0.1700
      3 H3        -10.6346    1.0051   60.9596 H       1  ZINC000518937710    0.1100
      4 C4        -11.4584    2.9422   61.4173 C.3     1  ZINC000518937710   -0.6600
      5 S5        -11.7777    2.3802   63.1122 S.o2    1  ZINC000518937710    2.4000
      6 C6        -10.3519    1.3032   63.4247 C.3     1  ZINC000518937710   -0.6600
      7 O7        -11.6985    3.5003   63.9831 O.2     1  ZINC000518937710   -0.9200
      8 O8        -12.9547    1.5840   63.1111 O.2     1  ZINC000518937710   -0.9300
      9 N9        -12.6169    1.1111   60.2832 N.am    1  ZINC000518937710   -0.9600
     10 C10       -13.7140    1.8990   59.7160 C.3     1  ZINC000518937710    0.0800
     11 C11       -15.1234    1.6342   60.2495 C.3     1  ZINC000518937710   -0.1800
     12 C12       -14.3922    2.9241   60.6272 C.3     1  ZINC000518937710   -0.1800
     13 S13       -12.8587   -0.4779   60.6820 S.o2    1  ZINC000518937710    2.6900
     14 O14       -12.4550   -0.6174   62.0373 O.2     1  ZINC000518937710   -0.9400
     15 O15       -14.1597   -0.8141   60.2201 O.2     1  ZINC000518937710   -0.9400
     16 C16       -11.7288   -1.4334   59.7253 C.ar    1  ZINC000518937710   -0.6400
     17 C17       -10.4179   -1.5735   60.1411 C.ar    1  ZINC000518937710   -0.0300
     18 C18        -9.5286   -2.3225   59.3930 C.ar    1  ZINC000518937710   -0.1300
     19 C19        -9.9467   -2.9349   58.2264 C.ar    1  ZINC000518937710   -0.0300
     20 C20       -11.2589   -2.7987   57.8036 C.ar    1  ZINC000518937710    0.0200
     21 C21       -12.1561   -2.0485   58.5598 C.ar    1  ZINC000518937710    0.1900
     22 O22       -13.3716   -2.0665   57.9390 O.3     1  ZINC000518937710   -0.2800
     23 C23       -13.1077   -2.4929   56.5892 C.3     1  ZINC000518937710    0.5700
     24 F24       -14.1659   -3.2679   56.1027 F       1  ZINC000518937710   -0.1200
     25 F25       -12.8868   -1.3886   55.7591 F       1  ZINC000518937710   -0.1400
     26 O26       -11.9135   -3.2905   56.7113 O.3     1  ZINC000518937710   -0.2900
     27 H27       -11.4161    2.8727   58.6756 H       1  ZINC000518937710    0.1000
     28 H28        -9.7685    2.6690   59.3176 H       1  ZINC000518937710    0.0800
     29 H29       -10.5844    1.3075   58.5122 H       1  ZINC000518937710    0.0700
     30 H30       -10.5415    3.5313   61.3966 H       1  ZINC000518937710    0.1600
     31 H31       -12.2920    3.5553   61.0747 H       1  ZINC000518937710    0.1400
     32 H32        -9.4387    1.8983   63.4182 H       1  ZINC000518937710    0.1300
     33 H33       -10.4655    0.8228   64.3966 H       1  ZINC000518937710    0.1300
     34 H34       -10.2947    0.5413   62.6473 H       1  ZINC000518937710    0.1300
     35 H35       -13.6144    2.1520   58.6605 H       1  ZINC000518937710    0.1500
     36 H36       -15.9512    1.7129   59.5448 H       1  ZINC000518937710    0.1100
     37 H37       -15.2342    0.8738   61.0224 H       1  ZINC000518937710    0.1000
     38 H38       -14.0221    3.0122   61.6486 H       1  ZINC000518937710    0.1000
     39 H39       -14.7392    3.8513   60.1709 H       1  ZINC000518937710    0.1000
     40 H40       -10.0876   -1.0966   61.0520 H       1  ZINC000518937710    0.1600
     41 H41        -8.5051   -2.4291   59.7207 H       1  ZINC000518937710    0.1600
     42 H42        -9.2497   -3.5194   57.6440 H       1  ZINC000518937710    0.1500
@<TRIPOS>BOND
     1     1     2    1
     2     1    27    1
     3     1    28    1
     4     1    29    1
     5     2     3    1
     6     2     4    1
     7     2     9    1
     8     4     5    1
     9     4    30    1
    10     4    31    1
    11     5     6    1
    12     5     7    2
    13     5     8    2
    14     6    32    1
    15     6    33    1
    16     6    34    1
    17     9    10    1
    18     9    13   am
    19    10    12    1
    20    10    11    1
    21    10    35    1
    22    11    12    1
    23    11    36    1
    24    11    37    1
    25    12    38    1
    26    12    39    1
    27    13    14    2
    28    13    15    2
    29    13    16    1
    30    16    21   ar
    31    16    17   ar
    32    17    18   ar
    33    17    40    1
    34    18    19   ar
    35    18    41    1
    36    19    20   ar
    37    19    42    1
    38    20    26    1
    39    20    21   ar
    40    21    22    1
    41    22    23    1
    42    23    24    1
    43    23    25    1
    44    23    26    1
@<TRIPOS>SUBSTRUCTURE
     1 ZINC000518937710        1 TEMP              0 ****  ****    0 ROOT


##########                                Name:    ZINC000494558165
##########                DOCK_Rotatable_Bonds:                  11
##########                         Heavy_Atoms:                  28
##########                    Molecular_Weight:             409.506
##########                DOCK_Rotatable_Bonds:                  11
##########                       Formal_Charge:        -6.55651e-07
##########                     HBond_Acceptors:                   9
##########                        HBond_Donors:                   3
##########                         Heavy_Atoms:                  28
##########                          Grid_Score:          -26.008186
##########                     Grid_vdw_energy:          -27.544216
##########                      Grid_es_energy:            1.536030
##########           Internal_energy_repulsive:           30.161058

@<TRIPOS>MOLECULE
ZINC000494558165
 55 57 1 0 0
SMALL
USER_CHARGES


@<TRIPOS>ATOM
      1 O1         -9.7608    4.1280   60.0447 O.2     1  ZINC000494558165   -0.4400
      2 C2         -9.2657    3.0294   59.9116 C.2     1  ZINC000494558165    0.5100
      3 C3         -9.5612    1.9432   60.9135 C.3     1  ZINC000494558165    0.0300
      4 N4        -10.9935    1.6192   60.8762 N.3     1  ZINC000494558165   -0.5000
      5 C5        -11.3540    0.9718   59.6078 C.3     1  ZINC000494558165    0.0500
      6 C6        -12.8331    1.2243   59.3087 C.3     1  ZINC000494558165   -0.1100
      7 C7        -13.2029    0.5697   57.9762 C.3     1  ZINC000494558165    0.0800
      8 O8        -12.9131   -0.8284   58.0357 O.3     1  ZINC000494558165   -0.5700
      9 C9        -11.3737    0.7815   62.0216 C.3     1  ZINC000494558165    0.1200
     10 H10       -11.9314   -0.0914   61.6822 H       1  ZINC000494558165    0.1000
     11 C11       -12.2151    1.5974   63.0259 C.3     1  ZINC000494558165   -0.1200
     12 C12       -11.1431    2.1303   64.0003 C.3     1  ZINC000494558165   -0.0900
     13 C13       -10.0099    1.1293   63.9285 C.ar    1  ZINC000494558165   -0.0900
     14 C14        -8.9471    0.9140   64.7893 C.ar    1  ZINC000494558165   -0.1100
     15 C15        -8.0194   -0.0724   64.5154 C.ar    1  ZINC000494558165   -0.1100
     16 C16        -8.1520   -0.8473   63.3787 C.ar    1  ZINC000494558165   -0.1200
     17 C17        -9.2118   -0.6339   62.5185 C.ar    1  ZINC000494558165   -0.1000
     18 C18       -10.1422    0.3520   62.7898 C.ar    1  ZINC000494558165   -0.1300
     19 N19        -8.4554    2.7779   58.8643 N.am    1  ZINC000494558165   -0.6900
     20 C20        -8.1911    3.7494   57.9683 C.2     1  ZINC000494558165    0.7000
     21 O21        -8.6823    4.8526   58.1053 O.2     1  ZINC000494558165   -0.5200
     22 N22        -7.3821    3.4974   56.9201 N.am    1  ZINC000494558165   -0.7300
     23 C23        -7.0934    4.5538   55.9471 C.3     1  ZINC000494558165    0.1700
     24 H24        -7.9392    5.2390   55.8884 H       1  ZINC000494558165    0.1200
     25 C25        -5.8328    5.3238   56.3781 C.3     1  ZINC000494558165   -0.1400
     26 C26        -5.4007    6.1836   55.1623 C.3     1  ZINC000494558165   -0.5800
     27 S27        -5.6186    5.0263   53.7579 S.o2    1  ZINC000494558165    2.4000
     28 O28        -6.2389    5.7090   52.6770 O.2     1  ZINC000494558165   -0.9300
     29 O29        -4.4086    4.3128   53.5434 O.2     1  ZINC000494558165   -0.9300
     30 C30        -6.8371    3.9270   54.5622 C.3     1  ZINC000494558165   -0.6200
     31 H31        -8.9810    1.0539   60.6671 H       1  ZINC000494558165    0.0700
     32 H32        -9.2924    2.2872   61.9122 H       1  ZINC000494558165    0.1200
     33 H33       -10.7451    1.3843   58.8034 H       1  ZINC000494558165    0.0900
     34 H34       -11.1767   -0.1010   59.6842 H       1  ZINC000494558165    0.0400
     35 H35       -13.4429    0.7972   60.1049 H       1  ZINC000494558165    0.0700
     36 H36       -13.0136    2.2975   59.2488 H       1  ZINC000494558165    0.0800
     37 H37       -14.2663    0.7124   57.7840 H       1  ZINC000494558165    0.0500
     38 H38       -12.6240    1.0269   57.1738 H       1  ZINC000494558165    0.0400
     39 H39       -13.1223   -1.3084   57.2227 H       1  ZINC000494558165    0.3800
     40 H40       -12.7263    2.4195   62.5252 H       1  ZINC000494558165    0.0900
     41 H41       -12.9268    0.9562   63.5459 H       1  ZINC000494558165    0.0800
     42 H42       -10.7991    3.1145   63.6826 H       1  ZINC000494558165    0.0800
     43 H43       -11.5427    2.1772   65.0133 H       1  ZINC000494558165    0.0800
     44 H44        -8.8427    1.5193   65.6776 H       1  ZINC000494558165    0.1200
     45 H45        -7.1917   -0.2381   65.1891 H       1  ZINC000494558165    0.1300
     46 H46        -7.4275   -1.6186   63.1628 H       1  ZINC000494558165    0.1200
     47 H47        -9.3145   -1.2396   61.6303 H       1  ZINC000494558165    0.1200
     48 H48        -8.0624    1.8978   58.7555 H       1  ZINC000494558165    0.4100
     49 H49        -6.9911    2.6166   56.8101 H       1  ZINC000494558165    0.4000
     50 H50        -6.0607    5.9671   57.2282 H       1  ZINC000494558165    0.1100
     51 H51        -5.0396    4.6239   56.6412 H       1  ZINC000494558165    0.0900
     52 H52        -6.0502    7.0521   55.0524 H       1  ZINC000494558165    0.1400
     53 H53        -4.3582    6.4879   55.2547 H       1  ZINC000494558165    0.1400
     54 H54        -6.4276    2.9226   54.6697 H       1  ZINC000494558165    0.1500
     55 H55        -7.7614    3.9001   53.9851 H       1  ZINC000494558165    0.1500
@<TRIPOS>BOND
     1     1     2    2
     2     2     3    1
     3     2    19   am
     4     3     4    1
     5     3    31    1
     6     3    32    1
     7     4     5    1
     8     4     9    1
     9     5     6    1
    10     5    33    1
    11     5    34    1
    12     6     7    1
    13     6    35    1
    14     6    36    1
    15     7     8    1
    16     7    37    1
    17     7    38    1
    18     8    39    1
    19     9    10    1
    20     9    18    1
    21     9    11    1
    22    11    12    1
    23    11    40    1
    24    11    41    1
    25    12    13    1
    26    12    42    1
    27    12    43    1
    28    13    18   ar
    29    13    14   ar
    30    14    15   ar
    31    14    44    1
    32    15    16   ar
    33    15    45    1
    34    16    17   ar
    35    16    46    1
    36    17    18   ar
    37    17    47    1
    38    19    20   am
    39    19    48    1
    40    20    21    2
    41    20    22   am
    42    22    23    1
    43    22    49    1
    44    23    24    1
    45    23    30    1
    46    23    25    1
    47    25    26    1
    48    25    50    1
    49    25    51    1
    50    26    27    1
    51    26    52    1
    52    26    53    1
    53    27    28    2
    54    27    29    2
    55    27    30    1
    56    30    54    1
    57    30    55    1
@<TRIPOS>SUBSTRUCTURE
     1 ZINC000494558165        1 TEMP              0 ****  ****    0 ROOT


##########                                Name:    ZINC001064463188
##########                DOCK_Rotatable_Bonds:                   6
##########                         Heavy_Atoms:                  25
##########                    Molecular_Weight:             342.441
##########                DOCK_Rotatable_Bonds:                   6
##########                       Formal_Charge:          -0.0100004
##########                     HBond_Acceptors:                   6
##########                        HBond_Donors:                   0
##########                         Heavy_Atoms:                  25
##########                          Grid_Score:          -25.997946
##########                     Grid_vdw_energy:          -24.944128
##########                      Grid_es_energy:           -1.053817
##########           Internal_energy_repulsive:           35.086773

@<TRIPOS>MOLECULE
ZINC001064463188
 51 54 1 0 0
SMALL
USER_CHARGES


@<TRIPOS>ATOM
      1 C1        -12.0732    1.6342   62.3300 C.3     1  ZINC001064463188    0.0400
      2 O2        -10.9053    0.8147   62.4096 O.3     1  ZINC001064463188   -0.3000
      3 C3        -10.7094   -0.0762   61.4074 C.ar    1  ZINC001064463188    0.3900
      4 C4         -9.4641   -0.6767   61.2289 C.ar    1  ZINC001064463188   -0.2800
      5 C5         -9.3093   -1.5796   60.1936 C.ar    1  ZINC001064463188    0.2000
      6 N6        -10.3410   -1.8459   59.4071 N.ar    1  ZINC001064463188   -0.5800
      7 C7        -11.5131   -1.2596   59.6009 C.ar    1  ZINC001064463188    0.5300
      8 N8        -12.5678   -1.5643   58.7582 N.3     1  ZINC001064463188   -0.4500
      9 C9        -12.5795   -2.9875   58.4276 C.3     1  ZINC001064463188    0.0700
     10 C10       -12.8520   -3.1800   56.9310 C.3     1  ZINC001064463188   -0.1200
     11 C11       -14.2570   -2.7547   56.5492 C.3     1  ZINC001064463188    0.1400
     12 H12       -14.3942   -2.8506   55.4721 H       1  ZINC001064463188    0.0900
     13 C13       -15.3153   -3.5789   57.2850 C.3     1  ZINC001064463188   -0.1300
     14 C14       -15.5694   -2.7955   58.5849 C.3     1  ZINC001064463188   -0.1300
     15 C15       -14.9878   -1.4000   58.3337 C.3     1  ZINC001064463188    0.1200
     16 H16       -15.7711   -0.6500   58.4435 H       1  ZINC001064463188    0.0900
     17 C17       -13.8600   -1.1093   59.3359 C.3     1  ZINC001064463188    0.0600
     18 N18       -14.4249   -1.3294   56.9586 N.am    1  ZINC001064463188   -0.6000
     19 C19       -14.1336   -0.2205   56.2499 C.2     1  ZINC001064463188    0.5800
     20 O20       -14.3316    0.8784   56.7317 O.2     1  ZINC001064463188   -0.5400
     21 C21       -13.5763   -0.3396   54.8938 C.2     1  ZINC001064463188   -0.2200
     22 C22       -13.0745    0.7309   54.2848 C.2     1  ZINC001064463188    0.0000
     23 C23       -12.5036    0.6089   52.8955 C.3     1  ZINC001064463188   -0.1300
     24 C24       -13.0767    2.0659   54.9839 C.3     1  ZINC001064463188   -0.1200
     25 C25       -12.9710    3.3195   54.1132 C.3     1  ZINC001064463188   -0.1900
     26 C26       -14.2987    2.9650   54.7860 C.3     1  ZINC001064463188   -0.1600
     27 N27       -11.7023   -0.3935   60.5852 N.ar    1  ZINC001064463188   -0.5900
     28 H28       -12.9610    1.0018   62.3225 H       1  ZINC001064463188    0.0600
     29 H29       -12.1090    2.3005   63.1919 H       1  ZINC001064463188    0.1000
     30 H30       -12.0406    2.2254   61.4148 H       1  ZINC001064463188    0.0600
     31 H31        -8.6387   -0.4415   61.8844 H       1  ZINC001064463188    0.1500
     32 H32        -8.3574   -2.0620   60.0277 H       1  ZINC001064463188    0.1800
     33 H33       -11.6129   -3.4244   58.6780 H       1  ZINC001064463188    0.0800
     34 H34       -13.3591   -3.4858   59.0039 H       1  ZINC001064463188    0.0600
     35 H35       -12.1354   -2.5883   56.3614 H       1  ZINC001064463188    0.0800
     36 H36       -12.7196   -4.2323   56.6793 H       1  ZINC001064463188    0.0800
     37 H37       -16.2286   -3.6424   56.6933 H       1  ZINC001064463188    0.0800
     38 H38       -14.9349   -4.5756   57.5087 H       1  ZINC001064463188    0.0900
     39 H39       -16.6392   -2.7291   58.7834 H       1  ZINC001064463188    0.0800
     40 H40       -15.0581   -3.2734   59.4205 H       1  ZINC001064463188    0.0800
     41 H41       -14.0423   -1.6576   60.2601 H       1  ZINC001064463188    0.0700
     42 H42       -13.8235   -0.0401   59.5445 H       1  ZINC001064463188    0.0900
     43 H43       -13.5747   -1.2964   54.3927 H       1  ZINC001064463188    0.1200
     44 H44       -13.2905    0.7865   52.1624 H       1  ZINC001064463188    0.0800
     45 H45       -11.7105    1.3448   52.7627 H       1  ZINC001064463188    0.0800
     46 H46       -12.0968   -0.3928   52.7565 H       1  ZINC001064463188    0.0700
     47 H47       -12.5889    2.0870   55.9585 H       1  ZINC001064463188    0.1400
     48 H48       -12.4134    4.1656   54.5149 H       1  ZINC001064463188    0.1000
     49 H49       -12.8999    3.1787   53.0348 H       1  ZINC001064463188    0.1000
     50 H50       -15.1010    2.5910   54.1500 H       1  ZINC001064463188    0.0900
     51 H51       -14.6146    3.5780   55.6301 H       1  ZINC001064463188    0.1000
@<TRIPOS>BOND
     1     1     2    1
     2     1    28    1
     3     1    29    1
     4     1    30    1
     5     2     3    1
     6     3    27   ar
     7     3     4   ar
     8     4     5   ar
     9     4    31    1
    10     5     6   ar
    11     5    32    1
    12     6     7   ar
    13     7     8    1
    14     7    27   ar
    15     8    17    1
    16     8     9    1
    17     9    10    1
    18     9    33    1
    19     9    34    1
    20    10    11    1
    21    10    35    1
    22    10    36    1
    23    11    12    1
    24    11    18    1
    25    11    13    1
    26    13    14    1
    27    13    37    1
    28    13    38    1
    29    14    15    1
    30    14    39    1
    31    14    40    1
    32    15    16    1
    33    15    17    1
    34    15    18    1
    35    17    41    1
    36    17    42    1
    37    18    19   am
    38    19    20    2
    39    19    21    1
    40    21    22    2
    41    21    43    1
    42    22    23    1
    43    22    24    1
    44    23    44    1
    45    23    45    1
    46    23    46    1
    47    24    26    1
    48    24    25    1
    49    24    47    1
    50    25    26    1
    51    25    48    1
    52    25    49    1
    53    26    50    1
    54    26    51    1
@<TRIPOS>SUBSTRUCTURE
     1 ZINC001064463188        1 TEMP              0 ****  ****    0 ROOT


##########                                Name:    ZINC000437443367
##########                DOCK_Rotatable_Bonds:                   8
##########                         Heavy_Atoms:                  24
##########                    Molecular_Weight:             334.434
##########                DOCK_Rotatable_Bonds:                   8
##########                       Formal_Charge:          -0.0500003
##########                     HBond_Acceptors:                   5
##########                        HBond_Donors:                   1
##########                         Heavy_Atoms:                  24
##########                          Grid_Score:          -25.981670
##########                     Grid_vdw_energy:          -23.046040
##########                      Grid_es_energy:           -2.935631
##########           Internal_energy_repulsive:           29.964941

@<TRIPOS>MOLECULE
ZINC000437443367
 51 52 1 0 0
SMALL
USER_CHARGES


@<TRIPOS>ATOM
      1 C1        -12.0362   -3.3111   56.9797 C.3     1  ZINC000437443367   -0.1200
      2 C2        -11.2059   -2.7882   58.1235 C.ar    1  ZINC000437443367   -0.1000
      3 C3        -11.8117   -2.1093   59.1618 C.ar    1  ZINC000437443367   -0.1200
      4 C4        -11.0456   -1.6275   60.2160 C.ar    1  ZINC000437443367    0.1400
      5 N5        -11.6570   -0.9401   61.2689 N.am    1  ZINC000437443367   -0.6400
      6 C6        -11.6473    0.4074   61.2896 C.2     1  ZINC000437443367    0.5000
      7 O7        -11.1079    1.0244   60.3943 O.2     1  ZINC000437443367   -0.4800
      8 C8        -12.3004    1.1416   62.4144 C.2     1  ZINC000437443367    0.5100
      9 O9        -13.5026    1.3074   62.4138 O.2     1  ZINC000437443367   -0.5200
     10 N10       -11.5546    1.6199   63.4300 N.am    1  ZINC000437443367   -0.5700
     11 C11       -12.1951    2.3401   64.5333 C.3     1  ZINC000437443367    0.0900
     12 C12       -12.6308    3.7260   64.0530 C.3     1  ZINC000437443367   -0.1200
     13 C13       -13.3001    4.4779   65.2051 C.3     1  ZINC000437443367   -0.0900
     14 C14       -14.5251    3.6949   65.6817 C.3     1  ZINC000437443367   -0.1400
     15 C15       -12.3087    4.6271   66.3609 C.3     1  ZINC000437443367   -0.1500
     16 C16       -10.1034    1.4196   63.4306 C.3     1  ZINC000437443367    0.1300
     17 C17        -9.3835    2.7700   63.2345 C.3     1  ZINC000437443367   -0.1300
     18 C18        -9.0479    3.2340   64.6736 C.3     1  ZINC000437443367   -0.1300
     19 C19        -8.6662    1.9092   65.3796 C.3     1  ZINC000437443367   -0.1200
     20 C20        -9.6473    0.8724   64.7945 C.3     1  ZINC000437443367   -0.1400
     21 C21        -9.6715   -1.8300   60.2226 C.ar    1  ZINC000437443367   -0.1100
     22 C22        -9.0698   -2.5097   59.1817 C.ar    1  ZINC000437443367   -0.1300
     23 C23        -9.8361   -2.9940   58.1349 C.ar    1  ZINC000437443367    0.0800
     24 F24        -9.2454   -3.6585   57.1178 F       1  ZINC000437443367   -0.1400
     25 H25       -12.3736   -4.3220   57.2081 H       1  ZINC000437443367    0.0800
     26 H26       -12.9009   -2.6640   56.8330 H       1  ZINC000437443367    0.0700
     27 H27       -11.4347   -3.3254   56.0709 H       1  ZINC000437443367    0.0700
     28 H28       -12.8802   -1.9526   59.1546 H       1  ZINC000437443367    0.1400
     29 H29       -12.0882   -1.4332   61.9843 H       1  ZINC000437443367    0.4200
     30 H30       -13.0677    1.7824   64.8731 H       1  ZINC000437443367    0.0900
     31 H31       -11.4885    2.4465   65.3565 H       1  ZINC000437443367    0.1000
     32 H32       -11.7581    4.2837   63.7134 H       1  ZINC000437443367    0.0700
     33 H33       -13.3370    3.6196   63.2296 H       1  ZINC000437443367    0.0600
     34 H34       -13.6105    5.4652   64.8629 H       1  ZINC000437443367    0.0600
     35 H35       -14.2147    2.7077   66.0239 H       1  ZINC000437443367    0.0600
     36 H36       -15.0020    4.2306   66.5025 H       1  ZINC000437443367    0.0400
     37 H37       -15.2314    3.5887   64.8583 H       1  ZINC000437443367    0.0600
     38 H38       -11.4361    5.1849   66.0214 H       1  ZINC000437443367    0.0500
     39 H39       -12.7856    5.1628   67.1817 H       1  ZINC000437443367    0.0500
     40 H40       -11.9984    3.6399   66.7030 H       1  ZINC000437443367    0.0500
     41 H41        -9.8219    0.7271   62.6373 H       1  ZINC000437443367    0.1000
     42 H42        -8.4706    2.6349   62.6546 H       1  ZINC000437443367    0.0800
     43 H43       -10.0439    3.4869   62.7467 H       1  ZINC000437443367    0.0700
     44 H44        -8.2059    3.9261   64.6699 H       1  ZINC000437443367    0.0700
     45 H45        -9.9194    3.6866   65.1466 H       1  ZINC000437443367    0.0700
     46 H46        -7.6375    1.6351   65.1461 H       1  ZINC000437443367    0.0700
     47 H47        -8.8031    1.9981   66.4574 H       1  ZINC000437443367    0.0700
     48 H48       -10.5057    0.7558   65.4560 H       1  ZINC000437443367    0.0800
     49 H49        -9.1438   -0.0854   64.6631 H       1  ZINC000437443367    0.0700
     50 H50        -9.0741   -1.4561   61.0409 H       1  ZINC000437443367    0.1600
     51 H51        -8.0014   -2.6676   59.1864 H       1  ZINC000437443367    0.1400
@<TRIPOS>BOND
     1     1     2    1
     2     1    25    1
     3     1    26    1
     4     1    27    1
     5     2    23   ar
     6     2     3   ar
     7     3     4   ar
     8     3    28    1
     9     4     5    1
    10     4    21   ar
    11     5     6   am
    12     5    29    1
    13     6     7    2
    14     6     8    1
    15     8     9    2
    16     8    10   am
    17    10    11    1
    18    10    16    1
    19    11    12    1
    20    11    30    1
    21    11    31    1
    22    12    13    1
    23    12    32    1
    24    12    33    1
    25    13    14    1
    26    13    15    1
    27    13    34    1
    28    14    35    1
    29    14    36    1
    30    14    37    1
    31    15    38    1
    32    15    39    1
    33    15    40    1
    34    16    20    1
    35    16    17    1
    36    16    41    1
    37    17    18    1
    38    17    42    1
    39    17    43    1
    40    18    19    1
    41    18    44    1
    42    18    45    1
    43    19    20    1
    44    19    46    1
    45    19    47    1
    46    20    48    1
    47    20    49    1
    48    21    22   ar
    49    21    50    1
    50    22    23   ar
    51    22    51    1
    52    23    24    1
@<TRIPOS>SUBSTRUCTURE
     1 ZINC000437443367        1 TEMP              0 ****  ****    0 ROOT


##########                                Name:    ZINC000330515179
##########                DOCK_Rotatable_Bonds:                   4
##########                         Heavy_Atoms:                  21
##########                    Molecular_Weight:             378.287
##########                DOCK_Rotatable_Bonds:                   4
##########                       Formal_Charge:           0.0200002
##########                     HBond_Acceptors:                   6
##########                        HBond_Donors:                   0
##########                         Heavy_Atoms:                  21
##########                          Grid_Score:          -25.980581
##########                     Grid_vdw_energy:          -27.304956
##########                      Grid_es_energy:            1.324375
##########           Internal_energy_repulsive:            9.819521

@<TRIPOS>MOLECULE
ZINC000330515179
 41 42 1 0 0
SMALL
USER_CHARGES


@<TRIPOS>ATOM
      1 C1        -15.1514   -2.5348   56.6018 C.3     1  ZINC000330515179    0.0300
      2 O2        -15.1087   -3.4286   57.7161 O.3     1  ZINC000330515179   -0.3800
      3 C3        -13.8238   -3.5261   58.3339 C.3     1  ZINC000330515179    0.0700
      4 C4        -13.3313   -2.1273   58.7101 C.3     1  ZINC000330515179    0.0800
      5 H5        -13.1189   -1.5601   57.8038 H       1  ZINC000330515179    0.0800
      6 C6        -12.0557   -2.2429   59.5524 C.3     1  ZINC000330515179    0.0900
      7 N7        -11.7093   -0.9043   60.0562 N.am    1  ZINC000330515179   -1.0000
      8 S8        -10.1807   -0.2940   59.8736 S.o2    1  ZINC000330515179    2.6900
      9 O9         -9.3913   -1.3446   59.3329 O.2     1  ZINC000330515179   -0.9400
     10 O10       -10.3265    0.9716   59.2442 O.2     1  ZINC000330515179   -0.9500
     11 C11        -9.5494    0.0228   61.4877 C.ar    1  ZINC000330515179   -0.6700
     12 C12        -9.6435    1.2909   62.0300 C.ar    1  ZINC000330515179   -0.0100
     13 C13        -9.1487    1.5398   63.2964 C.ar    1  ZINC000330515179   -0.1100
     14 C14        -8.5593    0.5197   64.0212 C.ar    1  ZINC000330515179   -0.0400
     15 Br15       -7.8828    0.8594   65.7541 Br      1  ZINC000330515179   -0.0300
     16 C16        -8.4654   -0.7491   63.4783 C.ar    1  ZINC000330515179   -0.1100
     17 C17        -8.9652   -0.9983   62.2139 C.ar    1  ZINC000330515179   -0.0100
     18 C18       -12.7612   -0.1245   60.7275 C.3     1  ZINC000330515179    0.1000
     19 C19       -14.0024   -0.1121   59.8279 C.3     1  ZINC000330515179    0.1000
     20 C20       -15.1728    0.5241   60.5806 C.3     1  ZINC000330515179   -0.1400
     21 C21       -13.7085    0.6965   58.5627 C.3     1  ZINC000330515179   -0.1800
     22 O22       -14.3386   -1.4546   59.4695 O.3     1  ZINC000330515179   -0.3500
     23 H23       -16.1600   -2.5169   56.1889 H       1  ZINC000330515179    0.0900
     24 H24       -14.8750   -1.5325   56.9292 H       1  ZINC000330515179    0.0400
     25 H25       -14.4519   -2.8733   55.8375 H       1  ZINC000330515179    0.0400
     26 H26       -13.8982   -4.1389   59.2323 H       1  ZINC000330515179    0.0600
     27 H27       -13.1203   -3.9843   57.6388 H       1  ZINC000330515179    0.0700
     28 H28       -12.2293   -2.9172   60.3909 H       1  ZINC000330515179    0.0900
     29 H29       -11.2420   -2.6250   58.9359 H       1  ZINC000330515179    0.1000
     30 H30       -10.1033    2.0875   61.4637 H       1  ZINC000330515179    0.1500
     31 H31        -9.2219    2.5306   63.7197 H       1  ZINC000330515179    0.1500
     32 H32        -8.0054   -1.5459   64.0438 H       1  ZINC000330515179    0.1500
     33 H33        -8.8919   -1.9888   61.7899 H       1  ZINC000330515179    0.1500
     34 H34       -13.0059   -0.5855   61.6843 H       1  ZINC000330515179    0.0900
     35 H35       -12.4148    0.8963   60.8891 H       1  ZINC000330515179    0.1000
     36 H36       -14.9144    1.5464   60.8567 H       1  ZINC000330515179    0.0800
     37 H37       -16.0549    0.5326   59.9404 H       1  ZINC000330515179    0.0700
     38 H38       -15.3827   -0.0534   61.4809 H       1  ZINC000330515179    0.0700
     39 H39       -12.8759    0.2417   58.0260 H       1  ZINC000330515179    0.0600
     40 H40       -14.5915    0.7048   57.9236 H       1  ZINC000330515179    0.0700
     41 H41       -13.4489    1.7189   58.8370 H       1  ZINC000330515179    0.0700
@<TRIPOS>BOND
     1     1     2    1
     2     1    23    1
     3     1    24    1
     4     1    25    1
     5     2     3    1
     6     3     4    1
     7     3    26    1
     8     3    27    1
     9     4     5    1
    10     4    22    1
    11     4     6    1
    12     6     7    1
    13     6    28    1
    14     6    29    1
    15     7     8   am
    16     7    18    1
    17     8     9    2
    18     8    10    2
    19     8    11    1
    20    11    17   ar
    21    11    12   ar
    22    12    13   ar
    23    12    30    1
    24    13    14   ar
    25    13    31    1
    26    14    15    1
    27    14    16   ar
    28    16    17   ar
    29    16    32    1
    30    17    33    1
    31    18    19    1
    32    18    34    1
    33    18    35    1
    34    19    20    1
    35    19    21    1
    36    19    22    1
    37    20    36    1
    38    20    37    1
    39    20    38    1
    40    21    39    1
    41    21    40    1
    42    21    41    1
@<TRIPOS>SUBSTRUCTURE
     1 ZINC000330515179        1 TEMP              0 ****  ****    0 ROOT


##########                                Name:    ZINC001011267435
##########                DOCK_Rotatable_Bonds:                   7
##########                         Heavy_Atoms:                  24
##########                    Molecular_Weight:             331.458
##########                DOCK_Rotatable_Bonds:                   7
##########                       Formal_Charge:        -4.47035e-08
##########                     HBond_Acceptors:                   5
##########                        HBond_Donors:                   0
##########                         Heavy_Atoms:                  24
##########                          Grid_Score:          -25.955830
##########                     Grid_vdw_energy:          -24.578770
##########                      Grid_es_energy:           -1.377060
##########           Internal_energy_repulsive:           57.135448

@<TRIPOS>MOLECULE
ZINC001011267435
 53 54 1 0 0
SMALL
USER_CHARGES


@<TRIPOS>ATOM
      1 C1          1.3004   -0.3154   51.9394 C.3     1  ZINC001011267435   -0.1500
      2 C2          2.2879    0.8369   52.1337 C.3     1  ZINC001011267435   -0.1200
      3 C3          1.7121    2.1120   51.5147 C.3     1  ZINC001011267435   -0.0700
      4 C4          0.5470    2.5904   52.3423 C.ar    1  ZINC001011267435    0.1300
      5 C5          0.7688    3.4603   53.3921 C.ar    1  ZINC001011267435   -0.1200
      6 C6         -0.3205    3.8969   54.1525 C.ar    1  ZINC001011267435   -0.0800
      7 C7         -0.1315    4.8301   55.2874 C.2     1  ZINC001011267435    0.5600
      8 O8         -0.2765    6.0252   55.1220 O.2     1  ZINC001011267435   -0.5200
      9 N9          0.2012    4.3537   56.5035 N.am    1  ZINC001011267435   -0.6100
     10 C10         0.3860    5.2672   57.6397 C.3     1  ZINC001011267435    0.0700
     11 C11        -0.5335    4.8197   58.7829 C.3     1  ZINC001011267435    0.1000
     12 N12        -0.3493    3.3773   58.9964 N.am    1  ZINC001011267435   -0.6200
     13 C13        -0.0174    2.9008   60.2126 C.2     1  ZINC001011267435    0.5300
     14 O14         0.1319    3.6644   61.1430 O.2     1  ZINC001011267435   -0.5300
     15 C15         0.1680    1.4193   60.4166 C.3     1  ZINC001011267435   -0.1100
     16 H16        -0.3685    0.8755   59.6391 H       1  ZINC001011267435    0.0900
     17 C17        -0.3799    1.0207   61.7884 C.3     1  ZINC001011267435   -0.1500
     18 C18         1.6574    1.0769   60.3433 C.3     1  ZINC001011267435   -0.0800
     19 C19         1.8314   -0.4431   60.3312 C.3     1  ZINC001011267435   -0.1500
     20 C20         2.2544    1.6686   59.0648 C.3     1  ZINC001011267435   -0.1500
     21 C21        -0.5341    2.4638   57.8601 C.3     1  ZINC001011267435    0.0900
     22 C22         0.3798    2.9108   56.7183 C.3     1  ZINC001011267435    0.1000
     23 C23        -1.5929    3.4286   53.8117 C.ar    1  ZINC001011267435   -0.1600
     24 C24        -1.7235    2.5597   52.7454 C.ar    1  ZINC001011267435    0.1100
     25 N25        -0.6705    2.1772   52.0513 N.ar    1  ZINC001011267435   -0.4600
     26 H26         0.3559   -0.0702   52.4251 H       1  ZINC001011267435    0.0600
     27 H27         1.1311   -0.4730   50.8742 H       1  ZINC001011267435    0.0500
     28 H28         1.7108   -1.2238   52.3804 H       1  ZINC001011267435    0.0600
     29 H29         2.4573    0.9946   53.1988 H       1  ZINC001011267435    0.0700
     30 H30         3.2325    0.5918   51.6480 H       1  ZINC001011267435    0.0600
     31 H31         2.4816    2.8837   51.4903 H       1  ZINC001011267435    0.0800
     32 H32         1.3749    1.9029   50.4995 H       1  ZINC001011267435    0.0900
     33 H33         1.7685    3.7979   53.6223 H       1  ZINC001011267435    0.1400
     34 H34         1.4240    5.2340   57.9709 H       1  ZINC001011267435    0.0800
     35 H35         0.1278    6.2824   57.3387 H       1  ZINC001011267435    0.1100
     36 H36        -0.2748    5.3602   59.6934 H       1  ZINC001011267435    0.1100
     37 H37        -1.5714    5.0206   58.5175 H       1  ZINC001011267435    0.0700
     38 H38        -0.1716   -0.0335   61.9706 H       1  ZINC001011267435    0.0800
     39 H39         0.0981    1.6242   62.5599 H       1  ZINC001011267435    0.0600
     40 H40        -1.4568    1.1876   61.8120 H       1  ZINC001011267435    0.0600
     41 H41         2.1693    1.4943   61.2104 H       1  ZINC001011267435    0.0800
     42 H42         2.8924   -0.6871   60.2790 H       1  ZINC001011267435    0.0600
     43 H43         1.4060   -0.8647   61.2420 H       1  ZINC001011267435    0.0600
     44 H44         1.3194   -0.8605   59.4641 H       1  ZINC001011267435    0.0600
     45 H45         2.1305    2.7515   59.0734 H       1  ZINC001011267435    0.0600
     46 H46         3.3155    1.4247   59.0126 H       1  ZINC001011267435    0.0600
     47 H47         1.7425    1.2512   58.1977 H       1  ZINC001011267435    0.0500
     48 H48        -0.2759    1.4486   58.1611 H       1  ZINC001011267435    0.1000
     49 H49        -1.5721    2.4970   57.5290 H       1  ZINC001011267435    0.0800
     50 H50         0.1202    2.3694   55.8086 H       1  ZINC001011267435    0.1100
     51 H51         1.4186    2.7114   56.9817 H       1  ZINC001011267435    0.0800
     52 H52        -2.4607    3.7411   54.3737 H       1  ZINC001011267435    0.1500
     53 H53        -2.7023    2.1921   52.4746 H       1  ZINC001011267435    0.1700
@<TRIPOS>BOND
     1     1     2    1
     2     1    26    1
     3     1    27    1
     4     1    28    1
     5     2     3    1
     6     2    29    1
     7     2    30    1
     8     3     4    1
     9     3    31    1
    10     3    32    1
    11     4    25   ar
    12     4     5   ar
    13     5     6   ar
    14     5    33    1
    15     6     7    1
    16     6    23   ar
    17     7     8    2
    18     7     9   am
    19     9    22    1
    20     9    10    1
    21    10    11    1
    22    10    34    1
    23    10    35    1
    24    11    12    1
    25    11    36    1
    26    11    37    1
    27    12    13   am
    28    12    21    1
    29    13    14    2
    30    13    15    1
    31    15    16    1
    32    15    17    1
    33    15    18    1
    34    17    38    1
    35    17    39    1
    36    17    40    1
    37    18    19    1
    38    18    20    1
    39    18    41    1
    40    19    42    1
    41    19    43    1
    42    19    44    1
    43    20    45    1
    44    20    46    1
    45    20    47    1
    46    21    22    1
    47    21    48    1
    48    21    49    1
    49    22    50    1
    50    22    51    1
    51    23    24   ar
    52    23    52    1
    53    24    25   ar
    54    24    53    1
@<TRIPOS>SUBSTRUCTURE
     1 ZINC001011267435        1 TEMP              0 ****  ****    0 ROOT


##########                                Name:    ZINC000428748914
##########                DOCK_Rotatable_Bonds:                  11
##########                         Heavy_Atoms:                  30
##########                    Molecular_Weight:             413.492
##########                DOCK_Rotatable_Bonds:                  11
##########                       Formal_Charge:           0.0199993
##########                     HBond_Acceptors:                   7
##########                        HBond_Donors:                   3
##########                         Heavy_Atoms:                  30
##########                          Grid_Score:          -25.947498
##########                     Grid_vdw_energy:          -26.203045
##########                      Grid_es_energy:            0.255546
##########           Internal_energy_repulsive:           17.521852

@<TRIPOS>MOLECULE
ZINC000428748914
 58 61 1 0 0
SMALL
USER_CHARGES


@<TRIPOS>ATOM
      1 O1         -8.9187    3.2696   60.1677 O.2     1  ZINC000428748914   -0.5900
      2 C2         -8.8748    2.3963   59.3229 C.2     1  ZINC000428748914    0.7000
      3 N3         -8.1113    2.5591   58.2243 N.am    1  ZINC000428748914   -0.7400
      4 C4         -7.3388    3.7911   58.0452 C.3     1  ZINC000428748914    0.1900
      5 C5         -7.1932    4.0832   56.5739 C.ar    1  ZINC000428748914   -0.2000
      6 C6         -6.1158    3.5755   55.8614 C.ar    1  ZINC000428748914   -0.0200
      7 C7         -6.0202    3.8680   54.5119 C.ar    1  ZINC000428748914   -0.1900
      8 C8         -6.9995    4.6548   53.9198 C.ar    1  ZINC000428748914    0.3300
      9 O9         -6.9174    4.9482   52.5977 O.3     1  ZINC000428748914   -0.3000
     10 C10        -7.9560    5.7614   52.0480 C.3     1  ZINC000428748914    0.0800
     11 C11        -7.7868    5.8932   50.5140 C.3     1  ZINC000428748914   -0.1400
     12 C12        -9.2216    6.2329   50.0398 C.3     1  ZINC000428748914   -0.1200
     13 C13       -10.1316    5.3750   50.9429 C.3     1  ZINC000428748914   -0.1200
     14 C14        -9.3269    5.0752   52.2198 C.3     1  ZINC000428748914   -0.1200
     15 N15        -8.0119    5.1205   54.6326 N.ar    1  ZINC000428748914   -0.5400
     16 C16        -8.1333    4.8541   55.9191 C.ar    1  ZINC000428748914    0.1600
     17 N17        -9.5854    1.2630   59.4878 N.am    1  ZINC000428748914   -0.7400
     18 C18       -10.4153    1.0859   60.6820 C.3     1  ZINC000428748914    0.1800
     19 C19       -11.6756    0.2997   60.3151 C.3     1  ZINC000428748914   -0.1300
     20 C20       -12.4335    0.8042   59.0855 C.3     1  ZINC000428748914    0.1100
     21 O21       -12.8650    2.1480   59.3100 O.3     1  ZINC000428748914   -0.5700
     22 C22       -12.5004   -0.2879   61.4619 C.3     1  ZINC000428748914   -0.1400
     23 C23       -11.6661   -1.2089   60.5693 C.3     1  ZINC000428748914   -0.1000
     24 H24       -10.7621   -1.6414   60.9979 H       1  ZINC000428748914    0.1200
     25 C25       -12.4046   -2.0847   59.5901 C.ar    1  ZINC000428748914   -0.0700
     26 C26       -11.8604   -2.3402   58.3452 C.ar    1  ZINC000428748914   -0.0900
     27 C27       -12.5366   -3.1431   57.4464 C.ar    1  ZINC000428748914   -0.1500
     28 C28       -13.7594   -3.6921   57.7934 C.ar    1  ZINC000428748914    0.1000
     29 F29       -14.4212   -4.4776   56.9157 F       1  ZINC000428748914   -0.1400
     30 C30       -14.3033   -3.4359   59.0407 C.ar    1  ZINC000428748914   -0.1500
     31 C31       -13.6229   -2.6365   59.9395 C.ar    1  ZINC000428748914   -0.0800
     32 H32        -8.0731    1.8607   57.5522 H       1  ZINC000428748914    0.4000
     33 H33        -7.8568    4.6184   58.5303 H       1  ZINC000428748914    0.0800
     34 H34        -6.3517    3.6690   58.4909 H       1  ZINC000428748914    0.0800
     35 H35        -5.3689    2.9665   56.3488 H       1  ZINC000428748914    0.1400
     36 H36        -5.1947    3.4897   53.9271 H       1  ZINC000428748914    0.1400
     37 H37        -7.9596    6.7442   52.5193 H       1  ZINC000428748914    0.1000
     38 H38        -7.0975    6.7014   50.2695 H       1  ZINC000428748914    0.0700
     39 H39        -7.4493    4.9518   50.0803 H       1  ZINC000428748914    0.0800
     40 H40        -9.4303    7.2929   50.1846 H       1  ZINC000428748914    0.0700
     41 H41        -9.3529    5.9568   48.9935 H       1  ZINC000428748914    0.0700
     42 H42       -11.0371    5.9277   51.1933 H       1  ZINC000428748914    0.0700
     43 H43       -10.3895    4.4447   50.4370 H       1  ZINC000428748914    0.0700
     44 H44        -9.1944    3.9993   52.3335 H       1  ZINC000428748914    0.0800
     45 H45        -9.8419    5.4825   53.0899 H       1  ZINC000428748914    0.0700
     46 H46        -8.9737    5.2513   56.4689 H       1  ZINC000428748914    0.1600
     47 H47        -9.5472    0.5645   58.8157 H       1  ZINC000428748914    0.3900
     48 H48        -9.8524    0.5381   61.4377 H       1  ZINC000428748914    0.0700
     49 H49       -10.6979    2.0621   61.0760 H       1  ZINC000428748914    0.0900
     50 H50       -11.7767    0.7740   58.2161 H       1  ZINC000428748914    0.0500
     51 H51       -13.3011    0.1689   58.9075 H       1  ZINC000428748914    0.0600
     52 H52       -12.1418    2.7829   59.4036 H       1  ZINC000428748914    0.3800
     53 H53       -12.1452   -0.1145   62.4777 H       1  ZINC000428748914    0.1100
     54 H54       -13.5833   -0.3152   61.3407 H       1  ZINC000428748914    0.1100
     55 H55       -10.9065   -1.9117   58.0748 H       1  ZINC000428748914    0.1400
     56 H56       -12.1116   -3.3420   56.4737 H       1  ZINC000428748914    0.1400
     57 H57       -15.2572   -3.8634   59.3122 H       1  ZINC000428748914    0.1400
     58 H58       -14.0468   -2.4369   60.9126 H       1  ZINC000428748914    0.1300
@<TRIPOS>BOND
     1     1     2    2
     2     2     3   am
     3     2    17   am
     4     3     4    1
     5     3    32    1
     6     4     5    1
     7     4    33    1
     8     4    34    1
     9     5    16   ar
    10     5     6   ar
    11     6     7   ar
    12     6    35    1
    13     7     8   ar
    14     7    36    1
    15     8     9    1
    16     8    15   ar
    17     9    10    1
    18    10    14    1
    19    10    11    1
    20    10    37    1
    21    11    12    1
    22    11    38    1
    23    11    39    1
    24    12    13    1
    25    12    40    1
    26    12    41    1
    27    13    14    1
    28    13    42    1
    29    13    43    1
    30    14    44    1
    31    14    45    1
    32    15    16   ar
    33    16    46    1
    34    17    18    1
    35    17    47    1
    36    18    19    1
    37    18    48    1
    38    18    49    1
    39    19    23    1
    40    19    20    1
    41    19    22    1
    42    20    21    1
    43    20    50    1
    44    20    51    1
    45    21    52    1
    46    22    23    1
    47    22    53    1
    48    22    54    1
    49    23    24    1
    50    23    25    1
    51    25    31   ar
    52    25    26   ar
    53    26    27   ar
    54    26    55    1
    55    27    28   ar
    56    27    56    1
    57    28    29    1
    58    28    30   ar
    59    30    31   ar
    60    30    57    1
    61    31    58    1
@<TRIPOS>SUBSTRUCTURE
     1 ZINC000428748914        1 TEMP              0 ****  ****    0 ROOT


##########                                Name:    ZINC001070580102
##########                DOCK_Rotatable_Bonds:                   8
##########                         Heavy_Atoms:                  25
##########                    Molecular_Weight:              349.39
##########                DOCK_Rotatable_Bonds:                   8
##########                       Formal_Charge:          -0.0100003
##########                     HBond_Acceptors:                   9
##########                        HBond_Donors:                   3
##########                         Heavy_Atoms:                  25
##########                          Grid_Score:          -25.890772
##########                     Grid_vdw_energy:          -25.165520
##########                      Grid_es_energy:           -0.725253
##########           Internal_energy_repulsive:           13.248133

@<TRIPOS>MOLECULE
ZINC001070580102
 48 50 1 0 0
SMALL
USER_CHARGES


@<TRIPOS>ATOM
      1 C1        -11.0491   -1.6860   52.1364 C.3     1  ZINC001070580102   -0.0800
      2 C2        -12.3997   -1.2212   52.6169 C.2     1  ZINC001070580102   -0.0100
      3 C3        -12.9149   -1.4539   53.8338 C.2     1  ZINC001070580102   -0.1900
      4 C4        -14.2384   -0.8136   53.8416 C.2     1  ZINC001070580102   -0.2500
      5 C5        -15.2067   -0.7828   54.9522 C.2     1  ZINC001070580102    0.6000
      6 O6        -16.3095   -0.2988   54.7841 O.2     1  ZINC001070580102   -0.5300
      7 N7        -14.8699   -1.2913   56.1541 N.am    1  ZINC001070580102   -0.7200
      8 C8        -15.8319   -1.2591   57.2585 C.3     1  ZINC001070580102    0.2000
      9 C9        -15.1076   -1.4770   58.5620 C.2     1  ZINC001070580102    0.2600
     10 N10       -14.1777   -0.7047   59.0627 N.2     1  ZINC001070580102   -0.5100
     11 C11       -13.7587   -1.1985   60.2271 C.2     1  ZINC001070580102    0.2300
     12 C12       -12.6963   -0.5892   61.1051 C.3     1  ZINC001070580102    0.1400
     13 H13       -12.6322   -1.1469   62.0394 H       1  ZINC001070580102    0.0800
     14 C14       -13.0542    0.8691   61.4038 C.3     1  ZINC001070580102    0.0800
     15 O15       -12.0064    1.4637   62.1742 O.3     1  ZINC001070580102   -0.3800
     16 C16       -10.7298    1.4338   61.5300 C.3     1  ZINC001070580102    0.0600
     17 C17       -10.3483   -0.0188   61.2327 C.3     1  ZINC001070580102    0.0200
     18 N18       -11.3998   -0.6393   60.4137 N.3     1  ZINC001070580102   -0.5200
     19 C19       -11.0444   -2.0197   60.0582 C.3     1  ZINC001070580102    0.0600
     20 C20        -9.9913   -2.0053   58.9483 C.3     1  ZINC001070580102    0.0800
     21 O21        -8.7050   -2.2767   59.5086 O.3     1  ZINC001070580102   -0.5700
     22 N22       -14.4191   -2.2967   60.4847 N.2     1  ZINC001070580102   -0.2700
     23 N23       -15.3085   -2.4955   59.4160 N.pl3   1  ZINC001070580102   -0.4700
     24 C24       -14.3824   -0.2532   52.6061 C.2     1  ZINC001070580102    0.0900
     25 C25       -15.5816    0.5216   52.1240 C.3     1  ZINC001070580102   -0.0900
     26 O26       -13.2769   -0.5035   51.8980 O.3     1  ZINC001070580102   -0.1700
     27 H27       -10.8926   -1.3496   51.1115 H       1  ZINC001070580102    0.0800
     28 H28       -10.2723   -1.2702   52.7780 H       1  ZINC001070580102    0.0900
     29 H29       -11.0057   -2.7746   52.1721 H       1  ZINC001070580102    0.0900
     30 H30       -12.4521   -2.0001   54.6424 H       1  ZINC001070580102    0.1500
     31 H31       -13.9907   -1.6785   56.2878 H       1  ZINC001070580102    0.4000
     32 H32       -16.3309   -0.2902   57.2777 H       1  ZINC001070580102    0.1000
     33 H33       -16.5725   -2.0464   57.1184 H       1  ZINC001070580102    0.1100
     34 H34       -13.1716    1.4141   60.4672 H       1  ZINC001070580102    0.0700
     35 H35       -13.9867    0.9069   61.9670 H       1  ZINC001070580102    0.1000
     36 H36       -10.7797    1.9953   60.5971 H       1  ZINC001070580102    0.0600
     37 H37        -9.9812    1.8800   62.1846 H       1  ZINC001070580102    0.1000
     38 H38        -9.4029   -0.0431   60.6907 H       1  ZINC001070580102    0.1200
     39 H39       -10.2460   -0.5672   62.1691 H       1  ZINC001070580102    0.0400
     40 H40       -10.6420   -2.5283   60.9342 H       1  ZINC001070580102    0.0500
     41 H41       -11.9331   -2.5452   59.7090 H       1  ZINC001070580102    0.0800
     42 H42       -10.2333   -2.7678   58.2080 H       1  ZINC001070580102    0.0500
     43 H43        -9.9802   -1.0257   58.4706 H       1  ZINC001070580102    0.0600
     44 H44        -8.4655   -1.6954   60.2434 H       1  ZINC001070580102    0.3800
     45 H45       -15.9381   -3.2261   59.3119 H       1  ZINC001070580102    0.4400
     46 H46       -15.4473    1.5787   52.3531 H       1  ZINC001070580102    0.0900
     47 H47       -15.6875    0.3940   51.0467 H       1  ZINC001070580102    0.0800
     48 H48       -16.4774    0.1525   52.6234 H       1  ZINC001070580102    0.1100
@<TRIPOS>BOND
     1     1     2    1
     2     1    27    1
     3     1    28    1
     4     1    29    1
     5     2    26    1
     6     2     3    2
     7     3     4    1
     8     3    30    1
     9     4     5    1
    10     4    24    2
    11     5     6    2
    12     5     7   am
    13     7     8    1
    14     7    31    1
    15     8     9    1
    16     8    32    1
    17     8    33    1
    18     9    23    1
    19     9    10    2
    20    10    11    1
    21    11    12    1
    22    11    22    2
    23    12    13    1
    24    12    18    1
    25    12    14    1
    26    14    15    1
    27    14    34    1
    28    14    35    1
    29    15    16    1
    30    16    17    1
    31    16    36    1
    32    16    37    1
    33    17    18    1
    34    17    38    1
    35    17    39    1
    36    18    19    1
    37    19    20    1
    38    19    40    1
    39    19    41    1
    40    20    21    1
    41    20    42    1
    42    20    43    1
    43    21    44    1
    44    22    23    1
    45    23    45    1
    46    24    25    1
    47    24    26    1
    48    25    46    1
    49    25    47    1
    50    25    48    1
@<TRIPOS>SUBSTRUCTURE
     1 ZINC001070580102        1 TEMP              0 ****  ****    0 ROOT


##########                                Name:    ZINC000350493047
##########                DOCK_Rotatable_Bonds:                   7
##########                         Heavy_Atoms:                  24
##########                    Molecular_Weight:             330.387
##########                DOCK_Rotatable_Bonds:                   7
##########                       Formal_Charge:          -0.0300002
##########                     HBond_Acceptors:                   7
##########                        HBond_Donors:                   3
##########                         Heavy_Atoms:                  24
##########                          Grid_Score:          -25.875423
##########                     Grid_vdw_energy:          -26.177891
##########                      Grid_es_energy:            0.302467
##########           Internal_energy_repulsive:           17.387190

@<TRIPOS>MOLECULE
ZINC000350493047
 46 48 1 0 0
SMALL
USER_CHARGES


@<TRIPOS>ATOM
      1 C1          0.5728    4.1255   54.2847 C.3     1  <0>        -0.1600
      2 C2          0.7051    2.7289   53.6738 C.3     1  <0>         0.2600
      3 H3          0.8342    1.9952   54.4695 H       1  <0>         0.1200
      4 N4          1.8680    2.6935   52.7835 N.am    1  <0>        -0.7400
      5 C5          3.0817    2.3709   53.2727 C.2     1  <0>         0.7100
      6 N6          4.1513    2.3367   52.4533 N.am    1  <0>        -0.8600
      7 O7          3.2118    2.1107   54.4533 O.2     1  <0>        -0.5900
      8 C8         -0.5392    2.4043   52.8880 C.2     1  <0>         0.1700
      9 N9         -0.6301    1.5482   51.9136 N.2     1  <0>        -0.3800
     10 O10        -1.7640    1.5119   51.4845 O.3     1  <0>         0.0900
     11 C11        -2.5342    2.3725   52.1684 C.2     1  <0>         0.2400
     12 C12        -3.9729    2.6287   51.9570 C.ar    1  <0>        -0.0800
     13 C13        -4.6399    3.5695   52.7452 C.ar    1  <0>        -0.0200
     14 C14        -5.9823    3.8057   52.5448 C.ar    1  <0>        -0.2200
     15 C15        -6.6728    3.1092   51.5606 C.ar    1  <0>         0.1700
     16 O16        -7.9958    3.3446   51.3666 O.3     1  <0>        -0.3000
     17 C17        -8.6728    4.1073   52.3676 C.3     1  <0>         0.0800
     18 C18       -10.0571    4.5080   51.8540 C.3     1  <0>        -0.1500
     19 C19       -10.7820    5.3246   52.9258 C.3     1  <0>        -0.1200
     20 C20       -10.9327    4.4820   54.1939 C.3     1  <0>        -0.1300
     21 C21        -9.5483    4.0811   54.7075 C.3     1  <0>        -0.1200
     22 C22        -8.8234    3.2646   53.6357 C.3     1  <0>        -0.1200
     23 C23        -6.0129    2.1729   50.7742 C.ar    1  <0>        -0.1600
     24 C24        -4.6693    1.9351   50.9643 C.ar    1  <0>        -0.0300
     25 N25        -1.7548    2.9424   53.0714 N.2     1  <0>        -0.4700
     26 H26         0.4437    4.8592   53.4890 H       1  <0>         0.0600
     27 H27        -0.2925    4.1518   54.9470 H       1  <0>         0.0700
     28 H28         1.4727    4.3602   54.8529 H       1  <0>         0.0800
     29 H29         1.7645    2.9022   51.8420 H       1  <0>         0.4000
     30 H30         5.0245    2.1034   52.8053 H       1  <0>         0.4000
     31 H31         4.0479    2.5455   51.5118 H       1  <0>         0.4200
     32 H32        -4.1040    4.1108   53.5108 H       1  <0>         0.1400
     33 H33        -6.4987    4.5329   53.1538 H       1  <0>         0.1400
     34 H34        -8.0955    5.0038   52.5936 H       1  <0>         0.0800
     35 H35        -9.9497    5.1083   50.9506 H       1  <0>         0.0700
     36 H36       -10.6344    3.6114   51.6280 H       1  <0>         0.0800
     37 H37       -10.2047    6.2211   53.1518 H       1  <0>         0.0600
     38 H38       -11.7682    5.6101   52.5600 H       1  <0>         0.0700
     39 H39       -11.4491    5.0637   54.9575 H       1  <0>         0.0700
     40 H40       -11.5100    3.5854   53.9680 H       1  <0>         0.0700
     41 H41        -8.9710    4.9777   54.9334 H       1  <0>         0.0700
     42 H42        -9.6557    3.4808   55.6109 H       1  <0>         0.0700
     43 H43        -9.4008    2.3680   53.4097 H       1  <0>         0.0800
     44 H44        -7.8372    2.9791   54.0016 H       1  <0>         0.0700
     45 H45        -6.5531    1.6338   50.0099 H       1  <0>         0.1400
     46 H46        -4.1570    1.2074   50.3524 H       1  <0>         0.1400
@<TRIPOS>BOND
     1     1     2    1
     2     1    26    1
     3     1    27    1
     4     1    28    1
     5     2     3    1
     6     2     4    1
     7     2     8    1
     8     4     5   am
     9     4    29    1
    10     5     6   am
    11     5     7    2
    12     6    30    1
    13     6    31    1
    14     8    25    1
    15     8     9    2
    16     9    10    1
    17    10    11    1
    18    11    12    1
    19    11    25    2
    20    12    24   ar
    21    12    13   ar
    22    13    14   ar
    23    13    32    1
    24    14    15   ar
    25    14    33    1
    26    15    16    1
    27    15    23   ar
    28    16    17    1
    29    17    22    1
    30    17    18    1
    31    17    34    1
    32    18    19    1
    33    18    35    1
    34    18    36    1
    35    19    20    1
    36    19    37    1
    37    19    38    1
    38    20    21    1
    39    20    39    1
    40    20    40    1
    41    21    22    1
    42    21    41    1
    43    21    42    1
    44    22    43    1
    45    22    44    1
    46    23    24   ar
    47    23    45    1
    48    24    46    1
@<TRIPOS>SUBSTRUCTURE
     1 <0>         1 TEMP              0 ****  ****    0 ROOT


##########                                Name:    ZINC000750807956
##########                DOCK_Rotatable_Bonds:                  11
##########                         Heavy_Atoms:                  26
##########                    Molecular_Weight:             368.473
##########                DOCK_Rotatable_Bonds:                  11
##########                       Formal_Charge:        -8.12113e-07
##########                     HBond_Acceptors:                   7
##########                        HBond_Donors:                   1
##########                         Heavy_Atoms:                  26
##########                          Grid_Score:          -25.851639
##########                     Grid_vdw_energy:          -21.305328
##########                      Grid_es_energy:           -4.546310
##########           Internal_energy_repulsive:          168.879944

@<TRIPOS>MOLECULE
ZINC000750807956
 58 59 1 0 0
SMALL
USER_CHARGES


@<TRIPOS>ATOM
      1 C1        -15.8142    0.8153   57.5811 C.3     1  ZINC000750807956   -0.1500
      2 C2        -14.8453   -0.3492   57.7960 C.3     1  ZINC000750807956    0.0700
      3 O3        -13.9874   -0.0618   58.9316 O.3     1  ZINC000750807956   -0.3600
      4 C4        -13.3460   -1.1007   59.4893 C.2     1  ZINC000750807956    0.4800
      5 O5        -13.9476   -1.8713   60.1994 O.2     1  ZINC000750807956   -0.4900
      6 C6        -11.8759   -1.3061   59.2298 C.3     1  ZINC000750807956    0.1600
      7 H7        -11.6022   -0.8355   58.2855 H       1  ZINC000750807956    0.1000
      8 C8        -11.5706   -2.8058   59.1636 C.3     1  ZINC000750807956   -0.1300
      9 C9        -10.0589   -3.0096   59.0394 C.3     1  ZINC000750807956   -0.1200
     10 C10        -9.3612   -2.4286   60.2713 C.3     1  ZINC000750807956   -0.1400
     11 C11        -9.6414   -0.9246   60.3501 C.3     1  ZINC000750807956    0.1100
     12 N12       -11.0949   -0.7093   60.3219 N.am    1  ZINC000750807956   -0.6100
     13 C13       -11.7002    0.0171   61.2823 C.2     1  ZINC000750807956    0.5100
     14 O14       -12.9005    0.1876   61.2479 O.2     1  ZINC000750807956   -0.5000
     15 C15       -10.8856    0.6176   62.3989 C.3     1  ZINC000750807956   -0.1400
     16 C16       -11.7876    1.4863   63.2781 C.3     1  ZINC000750807956    0.2100
     17 H17       -12.7141    0.9519   63.4878 H       1  ZINC000750807956    0.1000
     18 N18       -12.0928    2.7370   62.5790 N.am    1  ZINC000750807956   -0.7000
     19 C19       -13.2973    3.3206   62.7368 C.2     1  ZINC000750807956    0.6600
     20 O20       -14.1298    2.8101   63.4601 O.2     1  ZINC000750807956   -0.5600
     21 O21       -13.5784    4.4692   62.0931 O.3     1  ZINC000750807956   -0.3700
     22 C22       -12.5370    5.0216   61.2453 C.3     1  ZINC000750807956    0.1400
     23 C23       -13.0360    6.3179   60.6036 C.3     1  ZINC000750807956   -0.1800
     24 C24       -11.2950    5.3155   62.0890 C.3     1  ZINC000750807956   -0.1400
     25 C25       -12.1829    4.0138   60.1500 C.3     1  ZINC000750807956   -0.1800
     26 C26       -11.0702    1.7988   64.5928 C.3     1  ZINC000750807956   -0.1800
     27 C27        -9.5700    2.0919   64.5267 C.3     1  ZINC000750807956   -0.1700
     28 C28       -10.5600    3.2267   64.7971 C.3     1  ZINC000750807956   -0.1800
     29 H29       -15.2492    1.7272   57.3880 H       1  ZINC000750807956    0.0600
     30 H30       -16.4582    0.5995   56.7286 H       1  ZINC000750807956    0.0800
     31 H31       -16.4255    0.9487   58.4737 H       1  ZINC000750807956    0.0700
     32 H32       -15.4104   -1.2611   57.9891 H       1  ZINC000750807956    0.0700
     33 H33       -14.2340   -0.4826   56.9034 H       1  ZINC000750807956    0.0600
     34 H34       -11.9297   -3.2906   60.0714 H       1  ZINC000750807956    0.0800
     35 H35       -12.0688   -3.2405   58.2971 H       1  ZINC000750807956    0.0800
     36 H36        -9.8409   -4.0752   58.9673 H       1  ZINC000750807956    0.0800
     37 H37        -9.6967   -2.5037   58.1444 H       1  ZINC000750807956    0.0700
     38 H38        -9.7411   -2.9169   61.1688 H       1  ZINC000750807956    0.0700
     39 H39        -8.2868   -2.5948   60.1932 H       1  ZINC000750807956    0.0800
     40 H40        -9.2305   -0.5244   61.2769 H       1  ZINC000750807956    0.0900
     41 H41        -9.1833   -0.4224   59.4980 H       1  ZINC000750807956    0.0800
     42 H42       -10.4507   -0.1801   63.0010 H       1  ZINC000750807956    0.1200
     43 H43       -10.0888    1.2310   61.9781 H       1  ZINC000750807956    0.1100
     44 H44       -11.4279    3.1452   62.0025 H       1  ZINC000750807956    0.4000
     45 H45       -13.2884    7.0359   61.3839 H       1  ZINC000750807956    0.0600
     46 H46       -12.2543    6.7326   59.9672 H       1  ZINC000750807956    0.0700
     47 H47       -13.9208    6.1085   60.0025 H       1  ZINC000750807956    0.0900
     48 H48       -10.9395    4.3920   62.5461 H       1  ZINC000750807956    0.0700
     49 H49       -10.5132    5.7302   61.4527 H       1  ZINC000750807956    0.0800
     50 H50       -11.5473    6.0335   62.8693 H       1  ZINC000750807956    0.0700
     51 H51       -13.0678    3.8045   59.5489 H       1  ZINC000750807956    0.0900
     52 H52       -11.4011    4.4286   59.5136 H       1  ZINC000750807956    0.0700
     53 H53       -11.8274    3.0904   60.6071 H       1  ZINC000750807956    0.0600
     54 H54       -11.4413    1.2667   65.4688 H       1  ZINC000750807956    0.1100
     55 H55        -8.9537    1.7525   65.3592 H       1  ZINC000750807956    0.0900
     56 H56        -9.0942    2.0621   63.5464 H       1  ZINC000750807956    0.0900
     57 H57       -10.7354    3.9434   63.9948 H       1  ZINC000750807956    0.1200
     58 H58       -10.5950    3.6339   65.8076 H       1  ZINC000750807956    0.0900
@<TRIPOS>BOND
     1     1     2    1
     2     1    29    1
     3     1    30    1
     4     1    31    1
     5     2     3    1
     6     2    32    1
     7     2    33    1
     8     3     4    1
     9     4     5    2
    10     4     6    1
    11     6     7    1
    12     6    12    1
    13     6     8    1
    14     8     9    1
    15     8    34    1
    16     8    35    1
    17     9    10    1
    18     9    36    1
    19     9    37    1
    20    10    11    1
    21    10    38    1
    22    10    39    1
    23    11    12    1
    24    11    40    1
    25    11    41    1
    26    12    13   am
    27    13    14    2
    28    13    15    1
    29    15    16    1
    30    15    42    1
    31    15    43    1
    32    16    17    1
    33    16    18    1
    34    16    26    1
    35    18    19   am
    36    18    44    1
    37    19    20    2
    38    19    21    1
    39    21    22    1
    40    22    23    1
    41    22    24    1
    42    22    25    1
    43    23    45    1
    44    23    46    1
    45    23    47    1
    46    24    48    1
    47    24    49    1
    48    24    50    1
    49    25    51    1
    50    25    52    1
    51    25    53    1
    52    26    28    1
    53    26    27    1
    54    26    54    1
    55    27    28    1
    56    27    55    1
    57    27    56    1
    58    28    57    1
    59    28    58    1
@<TRIPOS>SUBSTRUCTURE
     1 ZINC000750807956        1 TEMP              0 ****  ****    0 ROOT


##########                                Name:    ZINC001340305486
##########                DOCK_Rotatable_Bonds:                   8
##########                         Heavy_Atoms:                  27
##########                    Molecular_Weight:             378.431
##########                DOCK_Rotatable_Bonds:                   8
##########                       Formal_Charge:          0.00999955
##########                     HBond_Acceptors:                  10
##########                        HBond_Donors:                   2
##########                         Heavy_Atoms:                  27
##########                          Grid_Score:          -25.832361
##########                     Grid_vdw_energy:          -24.436642
##########                      Grid_es_energy:           -1.395719
##########           Internal_energy_repulsive:          148.418106

@<TRIPOS>MOLECULE
ZINC001340305486
 53 55 1 0 0
SMALL
USER_CHARGES


@<TRIPOS>ATOM
      1 C1         -4.3964    6.8150   59.5156 C.3     1  ZINC001340305486    0.0900
      2 N2         -5.7800    6.5593   59.1076 N.am    1  ZINC001340305486   -0.7300
      3 C3         -6.6349    5.9621   59.9613 C.2     1  ZINC001340305486    0.5200
      4 O4         -6.2584    5.6350   61.0669 O.2     1  ZINC001340305486   -0.5100
      5 C5         -8.0587    5.7007   59.5423 C.3     1  ZINC001340305486    0.0600
      6 H6         -8.7070    5.7292   60.4181 H       1  ZINC001340305486    0.0900
      7 C7         -8.1526    4.3212   58.8805 C.3     1  ZINC001340305486    0.0900
      8 N8         -9.5027    4.1685   58.3154 N.am    1  ZINC001340305486   -0.5800
      9 C9        -10.2453    3.0749   58.5783 C.2     1  ZINC001340305486    0.5100
     10 O10       -11.3564    2.9672   58.1023 O.2     1  ZINC001340305486   -0.5200
     11 C11        -9.7003    1.9949   59.4559 C.2     1  ZINC001340305486    0.5200
     12 O12        -8.5892    2.1026   59.9317 O.2     1  ZINC001340305486   -0.5000
     13 N13       -10.4429    0.9013   59.7187 N.am    1  ZINC001340305486   -0.6900
     14 C14        -9.9080   -0.1582   60.5776 C.3     1  ZINC001340305486    0.1200
     15 C15       -10.5012   -1.5042   60.1565 C.3     1  ZINC001340305486   -0.0400
     16 C16       -12.0054   -1.4283   60.2083 C.2     1  ZINC001340305486    0.1700
     17 N17       -12.7206   -0.8071   61.1087 N.2     1  ZINC001340305486   -0.2800
     18 N18       -13.9721   -0.9447   60.8394 N.2     1  ZINC001340305486   -0.2900
     19 C19       -14.1091   -1.6538   59.7554 C.2     1  ZINC001340305486    0.1900
     20 C20       -15.3972   -2.0316   59.0713 C.3     1  ZINC001340305486   -0.0400
     21 C21       -15.3604   -3.5225   58.7223 C.3     1  ZINC001340305486   -0.1200
     22 C22       -14.7222   -3.7104   57.3492 C.3     1  ZINC001340305486   -0.1300
     23 C23       -13.6418   -2.6562   57.1123 C.3     1  ZINC001340305486   -0.1400
     24 C24       -12.5369   -2.8033   58.1622 C.3     1  ZINC001340305486    0.1000
     25 N25       -12.8678   -1.9849   59.3293 N.pl3   1  ZINC001340305486   -0.4600
     26 C26       -10.0179    5.2449   57.4543 C.3     1  ZINC001340305486    0.0200
     27 C27        -9.8331    6.5794   58.1857 C.3     1  ZINC001340305486    0.0500
     28 O28        -8.4730    6.7010   58.6088 O.3     1  ZINC001340305486   -0.3500
     29 H29        -4.3899    7.4636   60.3915 H       1  ZINC001340305486    0.0600
     30 H30        -3.9090    5.8709   59.7589 H       1  ZINC001340305486    0.0600
     31 H31        -3.8609    7.3007   58.6999 H       1  ZINC001340305486    0.0800
     32 H32        -6.0808    6.8198   58.2230 H       1  ZINC001340305486    0.4000
     33 H33        -7.4110    4.2443   58.0853 H       1  ZINC001340305486    0.0900
     34 H34        -7.9760    3.5444   59.6244 H       1  ZINC001340305486    0.1100
     35 H35       -11.3315    0.8158   59.3394 H       1  ZINC001340305486    0.4200
     36 H36        -8.8229   -0.1926   60.4791 H       1  ZINC001340305486    0.0900
     37 H37       -10.1723    0.0468   61.6150 H       1  ZINC001340305486    0.0800
     38 H38       -10.1840   -1.7391   59.1406 H       1  ZINC001340305486    0.0900
     39 H39       -10.1531   -2.2829   60.8352 H       1  ZINC001340305486    0.1100
     40 H40       -16.2360   -1.8341   59.7388 H       1  ZINC001340305486    0.1000
     41 H41       -15.5106   -1.4463   58.1587 H       1  ZINC001340305486    0.0900
     42 H42       -14.7748   -4.0561   59.4708 H       1  ZINC001340305486    0.0600
     43 H43       -16.3763   -3.9171   58.7075 H       1  ZINC001340305486    0.0800
     44 H44       -14.2750   -4.7028   57.2932 H       1  ZINC001340305486    0.0700
     45 H45       -15.4894   -3.6183   56.5803 H       1  ZINC001340305486    0.0800
     46 H46       -13.2167   -2.7900   56.1175 H       1  ZINC001340305486    0.0900
     47 H47       -14.0826   -1.6621   57.1866 H       1  ZINC001340305486    0.0800
     48 H48       -12.4538   -3.8489   58.4586 H       1  ZINC001340305486    0.0900
     49 H49       -11.5889   -2.4676   57.7420 H       1  ZINC001340305486    0.1000
     50 H50        -9.4641    5.2608   56.5156 H       1  ZINC001340305486    0.0800
     51 H51       -11.0765    5.0796   57.2538 H       1  ZINC001340305486    0.1700
     52 H52       -10.0799    7.4005   57.5127 H       1  ZINC001340305486    0.1200
     53 H53       -10.4886    6.6113   59.0561 H       1  ZINC001340305486    0.0600
@<TRIPOS>BOND
     1     1     2    1
     2     1    29    1
     3     1    30    1
     4     1    31    1
     5     2     3   am
     6     2    32    1
     7     3     4    2
     8     3     5    1
     9     5     6    1
    10     5    28    1
    11     5     7    1
    12     7     8    1
    13     7    33    1
    14     7    34    1
    15     8     9   am
    16     8    26    1
    17     9    10    2
    18     9    11    1
    19    11    12    2
    20    11    13   am
    21    13    14    1
    22    13    35    1
    23    14    15    1
    24    14    36    1
    25    14    37    1
    26    15    16    1
    27    15    38    1
    28    15    39    1
    29    16    25    1
    30    16    17    2
    31    17    18    1
    32    18    19    2
    33    19    25    1
    34    19    20    1
    35    20    21    1
    36    20    40    1
    37    20    41    1
    38    21    22    1
    39    21    42    1
    40    21    43    1
    41    22    23    1
    42    22    44    1
    43    22    45    1
    44    23    24    1
    45    23    46    1
    46    23    47    1
    47    24    25    1
    48    24    48    1
    49    24    49    1
    50    26    27    1
    51    26    50    1
    52    26    51    1
    53    27    28    1
    54    27    52    1
    55    27    53    1
@<TRIPOS>SUBSTRUCTURE
     1 ZINC001340305486        1 TEMP              0 ****  ****    0 ROOT


##########                                Name:    ZINC001574157642
##########                DOCK_Rotatable_Bonds:                   9
##########                         Heavy_Atoms:                  28
##########                    Molecular_Weight:             387.445
##########                DOCK_Rotatable_Bonds:                   9
##########                       Formal_Charge:          -0.0400004
##########                     HBond_Acceptors:                  11
##########                        HBond_Donors:                   4
##########                         Heavy_Atoms:                  28
##########                          Grid_Score:          -25.825590
##########                     Grid_vdw_energy:          -24.235651
##########                      Grid_es_energy:           -1.589939
##########           Internal_energy_repulsive:           11.431635

@<TRIPOS>MOLECULE
ZINC001574157642
 53 55 1 0 0
SMALL
USER_CHARGES


@<TRIPOS>ATOM
      1 C1        -14.7425    3.2520   62.8717 C.3     1  ZINC001574157642   -0.1400
      2 C2        -13.9252    2.7415   61.6832 C.3     1  ZINC001574157642   -0.0900
      3 C3        -14.3325    3.5022   60.4198 C.3     1  ZINC001574157642   -0.1500
      4 C4        -12.4361    2.9643   61.9549 C.3     1  ZINC001574157642   -0.1300
      5 C5        -11.8346    1.6982   62.5684 C.3     1  ZINC001574157642    0.1300
      6 H6        -12.6358    1.0530   62.9286 H       1  ZINC001574157642    0.1100
      7 C7        -10.9235    2.0807   63.7366 C.3     1  ZINC001574157642    0.1100
      8 N8         -9.9974    3.1324   63.3094 N.pl3   1  ZINC001574157642   -0.7100
      9 C9         -8.9229    3.4821   64.1176 C.ar    1  ZINC001574157642    0.3700
     10 C10        -8.7487    2.8601   65.3527 C.ar    1  ZINC001574157642    0.0000
     11 N11        -7.7296    3.1917   66.1203 N.ar    1  ZINC001574157642   -0.3700
     12 C12        -6.8670    4.1199   65.7159 C.ar    1  ZINC001574157642    0.0800
     13 C13        -5.7193    4.4931   66.5795 C.2     1  ZINC001574157642    0.2300
     14 N14        -4.7944    5.3944   66.3140 N.2     1  ZINC001574157642   -0.2700
     15 N15        -3.9761    5.4244   67.3090 N.pl3   1  ZINC001574157642   -0.2300
     16 N16        -4.3527    4.5710   68.1963 N.2     1  ZINC001574157642   -0.0400
     17 N17        -5.4244    3.9836   67.7840 N.2     1  ZINC001574157642   -0.2600
     18 C18        -7.0408    4.7410   64.4813 C.ar    1  ZINC001574157642    0.1600
     19 N19        -8.0593    4.4046   63.7109 N.ar    1  ZINC001574157642   -0.5000
     20 N20       -11.0540    0.9869   61.5530 N.am    1  ZINC001574157642   -0.7300
     21 C21       -11.4225   -0.2497   61.1638 C.2     1  ZINC001574157642    0.5200
     22 O22       -12.3993   -0.7743   61.6553 O.2     1  ZINC001574157642   -0.5100
     23 C23       -10.6206   -0.9808   60.1180 C.3     1  ZINC001574157642   -0.1300
     24 H24       -10.4657   -0.3317   59.2562 H       1  ZINC001574157642    0.1100
     25 C25       -11.3733   -2.2437   59.6823 C.3     1  ZINC001574157642   -0.1000
     26 C26       -10.6301   -2.8652   58.4972 C.3     1  ZINC001574157642   -0.1400
     27 C27        -9.1658   -2.9733   58.8123 C.2     1  ZINC001574157642    0.5200
     28 O28        -8.4879   -3.7219   58.1406 O.2     1  ZINC001574157642   -0.5500
     29 N29        -8.5707   -2.2899   59.7906 N.am    1  ZINC001574157642   -0.7200
     30 C30        -9.2678   -1.3898   60.7019 C.3     1  ZINC001574157642    0.1200
     31 H31       -14.5539    4.3164   63.0118 H       1  ZINC001574157642    0.0400
     32 H32       -15.8032    3.0933   62.6781 H       1  ZINC001574157642    0.0500
     33 H33       -14.4523    2.7100   63.7717 H       1  ZINC001574157642    0.0700
     34 H34       -14.1136    1.6771   61.5431 H       1  ZINC001574157642    0.0700
     35 H35       -14.1439    4.5666   60.5599 H       1  ZINC001574157642    0.0500
     36 H36       -13.7502    3.1385   59.5731 H       1  ZINC001574157642    0.0500
     37 H37       -15.3933    3.3435   60.2262 H       1  ZINC001574157642    0.0500
     38 H38       -11.9260    3.1921   61.0189 H       1  ZINC001574157642    0.0700
     39 H39       -12.3137    3.7970   62.6474 H       1  ZINC001574157642    0.0800
     40 H40       -11.5298    2.4452   64.5659 H       1  ZINC001574157642    0.0800
     41 H41       -10.3574    1.2062   64.0572 H       1  ZINC001574157642    0.0900
     42 H42       -10.1344    3.5846   62.4622 H       1  ZINC001574157642    0.4100
     43 H43        -9.4491    2.1065   65.6811 H       1  ZINC001574157642    0.1700
     44 H44        -3.1980    5.9995   67.3784 H       1  ZINC001574157642    0.4800
     45 H45        -6.3409    5.4950   64.1526 H       1  ZINC001574157642    0.1800
     46 H46       -10.2721    1.4059   61.1608 H       1  ZINC001574157642    0.4000
     47 H47       -11.4065   -2.9544   60.5082 H       1  ZINC001574157642    0.0800
     48 H48       -12.3878   -1.9812   59.3825 H       1  ZINC001574157642    0.0900
     49 H49       -11.0320   -3.8588   58.2985 H       1  ZINC001574157642    0.1100
     50 H50       -10.7655   -2.2383   57.6159 H       1  ZINC001574157642    0.1000
     51 H51        -7.6131   -2.3963   59.9023 H       1  ZINC001574157642    0.4000
     52 H52        -8.6581   -0.5014   60.8672 H       1  ZINC001574157642    0.0800
     53 H53        -9.4286   -1.8949   61.6543 H       1  ZINC001574157642    0.0700
@<TRIPOS>BOND
     1     1     2    1
     2     1    31    1
     3     1    32    1
     4     1    33    1
     5     2     3    1
     6     2     4    1
     7     2    34    1
     8     3    35    1
     9     3    36    1
    10     3    37    1
    11     4     5    1
    12     4    38    1
    13     4    39    1
    14     5     6    1
    15     5     7    1
    16     5    20    1
    17     7     8    1
    18     7    40    1
    19     7    41    1
    20     8     9    1
    21     8    42    1
    22     9    19   ar
    23     9    10   ar
    24    10    11   ar
    25    10    43    1
    26    11    12   ar
    27    12    13    1
    28    12    18   ar
    29    13    17    1
    30    13    14    2
    31    14    15    1
    32    15    16    1
    33    15    44    1
    34    16    17    2
    35    18    19   ar
    36    18    45    1
    37    20    21   am
    38    20    46    1
    39    21    22    2
    40    21    23    1
    41    23    24    1
    42    23    30    1
    43    23    25    1
    44    25    26    1
    45    25    47    1
    46    25    48    1
    47    26    27    1
    48    26    49    1
    49    26    50    1
    50    27    28    2
    51    27    29   am
    52    29    30    1
    53    29    51    1
    54    30    52    1
    55    30    53    1
@<TRIPOS>SUBSTRUCTURE
     1 ZINC001574157642        1 TEMP              0 ****  ****    0 ROOT


##########                                Name:    ZINC001023148918
##########                DOCK_Rotatable_Bonds:                   6
##########                         Heavy_Atoms:                  25
##########                    Molecular_Weight:             348.402
##########                DOCK_Rotatable_Bonds:                   6
##########                       Formal_Charge:           0.0199999
##########                     HBond_Acceptors:                   8
##########                        HBond_Donors:                   2
##########                         Heavy_Atoms:                  25
##########                          Grid_Score:          -25.816109
##########                     Grid_vdw_energy:          -24.953983
##########                      Grid_es_energy:           -0.862125
##########           Internal_energy_repulsive:           61.508381

@<TRIPOS>MOLECULE
ZINC001023148918
 49 52 1 0 0
SMALL
USER_CHARGES


@<TRIPOS>ATOM
      1 C1         -7.0043    5.4913   57.1949 C.3     1  ZINC001023148918   -0.0700
      2 C2         -7.6588    4.9795   58.4523 C.2     1  ZINC001023148918    0.0200
      3 N3         -7.6812    5.5868   59.6112 N.2     1  ZINC001023148918   -0.2700
      4 N4         -8.3186    4.8903   60.4819 N.pl3   1  ZINC001023148918   -0.2500
      5 C5         -8.5324    5.2755   61.8791 C.3     1  ZINC001023148918    0.0800
      6 C6         -8.7670    3.7354   59.9063 C.2     1  ZINC001023148918   -0.0400
      7 C7         -9.5400    2.6660   60.5579 C.2     1  ZINC001023148918    0.6000
      8 O8         -9.8379    2.7606   61.7334 O.2     1  ZINC001023148918   -0.5300
      9 N9         -9.9179    1.5818   59.8521 N.am    1  ZINC001023148918   -0.7000
     10 C10       -10.6874    0.5172   60.5008 C.3     1  ZINC001023148918    0.1500
     11 H11       -10.0287   -0.2686   60.8701 H       1  ZINC001023148918    0.1200
     12 C12       -11.7562   -0.0603   59.5394 C.3     1  ZINC001023148918    0.1000
     13 N13       -12.7975   -0.6158   60.4227 N.am    1  ZINC001023148918   -0.6200
     14 C14       -13.6665   -1.5925   60.0949 C.2     1  ZINC001023148918    0.5400
     15 O15       -14.4840   -1.9742   60.9054 O.2     1  ZINC001023148918   -0.5200
     16 C16       -13.6224   -2.2102   58.7210 C.3     1  ZINC001023148918   -0.1400
     17 H17       -12.5919   -2.3373   58.3892 H       1  ZINC001023148918    0.1100
     18 C18       -14.4237   -1.3537   57.7078 C.3     1  ZINC001023148918   -0.1400
     19 C19       -15.5422   -2.3316   57.2379 C.3     1  ZINC001023148918    0.0600
     20 H20       -16.4304   -1.8590   56.8186 H       1  ZINC001023148918    0.1300
     21 C21       -14.8283   -3.3571   56.3069 C.3     1  ZINC001023148918   -0.1500
     22 C22       -14.0157   -4.2197   57.3060 C.3     1  ZINC001023148918   -0.1500
     23 C23       -14.3799   -3.5718   58.7034 C.3     1  ZINC001023148918    0.0900
     24 H24       -14.2329   -4.2165   59.5699 H       1  ZINC001023148918    0.1400
     25 O25       -15.7575   -3.1237   58.4519 O.3     1  ZINC001023148918   -0.3600
     26 C26       -12.7306    0.0714   61.7207 C.3     1  ZINC001023148918    0.0700
     27 C27       -11.5698    1.0860   61.6433 C.3     1  ZINC001023148918    0.0900
     28 H28       -11.9411    2.0779   61.3856 H       1  ZINC001023148918    0.0800
     29 O29       -10.8476    1.1230   62.8758 O.3     1  ZINC001023148918   -0.5500
     30 C30        -8.3543    3.7757   58.5859 C.2     1  ZINC001023148918   -0.1800
     31 H31        -7.7193    6.0901   56.6309 H       1  ZINC001023148918    0.0800
     32 H32        -6.1432    6.1058   57.4578 H       1  ZINC001023148918    0.0700
     33 H33        -6.6768    4.6480   56.5868 H       1  ZINC001023148918    0.0800
     34 H34        -9.4225    5.9005   61.9515 H       1  ZINC001023148918    0.0900
     35 H35        -8.6667    4.3804   62.4863 H       1  ZINC001023148918    0.1100
     36 H36        -7.6672    5.8323   62.2389 H       1  ZINC001023148918    0.0900
     37 H37        -9.6803    1.5064   58.9147 H       1  ZINC001023148918    0.4100
     38 H38       -12.1711    0.7304   58.9143 H       1  ZINC001023148918    0.0800
     39 H39       -11.3243   -0.8469   58.9206 H       1  ZINC001023148918    0.0900
     40 H40       -14.8550   -0.4801   58.1966 H       1  ZINC001023148918    0.0800
     41 H41       -13.7934   -1.0566   56.8696 H       1  ZINC001023148918    0.0900
     42 H42       -15.5574   -3.9673   55.7739 H       1  ZINC001023148918    0.0800
     43 H43       -14.1649   -2.8475   55.6081 H       1  ZINC001023148918    0.0800
     44 H44       -14.3397   -5.2598   57.2706 H       1  ZINC001023148918    0.0800
     45 H45       -12.9474   -4.1399   57.1049 H       1  ZINC001023148918    0.0800
     46 H46       -13.6679    0.5939   61.9123 H       1  ZINC001023148918    0.0800
     47 H47       -12.5380   -0.6515   62.5134 H       1  ZINC001023148918    0.0900
     48 H48       -10.1079    1.7460   62.8797 H       1  ZINC001023148918    0.3900
     49 H49        -8.5276    3.0315   57.8227 H       1  ZINC001023148918    0.1600
@<TRIPOS>BOND
     1     1     2    1
     2     1    31    1
     3     1    32    1
     4     1    33    1
     5     2    30    1
     6     2     3    2
     7     3     4    1
     8     4     5    1
     9     4     6    1
    10     5    34    1
    11     5    35    1
    12     5    36    1
    13     6     7    1
    14     6    30    2
    15     7     8    2
    16     7     9   am
    17     9    10    1
    18     9    37    1
    19    10    11    1
    20    10    27    1
    21    10    12    1
    22    12    13    1
    23    12    38    1
    24    12    39    1
    25    13    14   am
    26    13    26    1
    27    14    15    2
    28    14    16    1
    29    16    17    1
    30    16    23    1
    31    16    18    1
    32    18    19    1
    33    18    40    1
    34    18    41    1
    35    19    20    1
    36    19    25    1
    37    19    21    1
    38    21    22    1
    39    21    42    1
    40    21    43    1
    41    22    23    1
    42    22    44    1
    43    22    45    1
    44    23    24    1
    45    23    25    1
    46    26    27    1
    47    26    46    1
    48    26    47    1
    49    27    28    1
    50    27    29    1
    51    29    48    1
    52    30    49    1
@<TRIPOS>SUBSTRUCTURE
     1 ZINC001023148918        1 TEMP              0 ****  ****    0 ROOT


##########                                Name:    ZINC000176150038
##########                DOCK_Rotatable_Bonds:                   4
##########                         Heavy_Atoms:                  23
##########                    Molecular_Weight:             333.712
##########                DOCK_Rotatable_Bonds:                   4
##########                       Formal_Charge:        -2.23517e-07
##########                     HBond_Acceptors:                  10
##########                        HBond_Donors:                   1
##########                         Heavy_Atoms:                  23
##########                          Grid_Score:          -25.806696
##########                     Grid_vdw_energy:          -25.863535
##########                      Grid_es_energy:            0.056839
##########           Internal_energy_repulsive:            8.364738

@<TRIPOS>MOLECULE
ZINC000176150038
 32 34 1 0 0
SMALL
USER_CHARGES


@<TRIPOS>ATOM
      1 C1         -9.8206   -1.6214   59.2875 C.3     1  ZINC000176150038   -0.0900
      2 C2        -11.3174   -1.7917   59.3298 C.2     1  ZINC000176150038    0.2600
      3 N3        -12.0009   -2.7744   58.8038 N.2     1  ZINC000176150038   -0.3300
      4 N4        -13.2572   -2.6187   59.0200 N.2     1  ZINC000176150038   -0.0300
      5 N5        -13.4627   -1.5375   59.6920 N.2     1  ZINC000176150038   -0.0700
      6 N6        -12.2015   -0.9607   59.9230 N.pl3   1  ZINC000176150038   -0.3300
      7 C7        -11.9218    0.2277   60.6146 C.ar    1  ZINC000176150038    0.1400
      8 C8        -12.6951    1.3588   60.3922 C.ar    1  ZINC000176150038   -0.1000
      9 C9        -12.4214    2.5302   61.0727 C.ar    1  ZINC000176150038   -0.1100
     10 C10       -11.3766    2.5793   61.9772 C.ar    1  ZINC000176150038    0.1000
     11 F11       -11.1115    3.7255   62.6415 F       1  ZINC000176150038   -0.1200
     12 C12       -10.5984    1.4482   62.2038 C.ar    1  ZINC000176150038    0.1300
     13 N13        -9.5409    1.4970   63.1190 N.am    1  ZINC000176150038   -0.6500
     14 C14        -9.7941    1.6535   64.4334 C.2     1  ZINC000176150038    0.5700
     15 O15       -10.9405    1.7521   64.8239 O.2     1  ZINC000176150038   -0.4800
     16 C16        -8.6732    1.7053   65.4035 C.ar    1  ZINC000176150038    0.1400
     17 N17        -8.4348    2.8120   66.1039 N.ar    1  ZINC000176150038   -0.4800
     18 C18        -7.4420    2.8618   66.9655 C.ar    1  ZINC000176150038    0.3000
     19 N19        -6.6460    1.8310   67.1740 N.ar    1  ZINC000176150038   -0.4800
     20 C20        -6.8151    0.6953   66.5193 C.ar    1  ZINC000176150038    0.1700
     21 C21        -7.8535    0.5918   65.6021 C.ar    1  ZINC000176150038   -0.1000
     22 Cl22       -8.1177   -0.8784   64.7174 Cl      1  ZINC000176150038    0.0100
     23 C23       -10.8757    0.2708   61.5251 C.ar    1  ZINC000176150038   -0.0800
     24 H24        -9.3744   -2.1137   60.1516 H       1  ZINC000176150038    0.1100
     25 H25        -9.4299   -2.0677   58.3731 H       1  ZINC000176150038    0.1100
     26 H26        -9.5751   -0.5596   59.3073 H       1  ZINC000176150038    0.0900
     27 H27       -13.5115    1.3236   59.6860 H       1  ZINC000176150038    0.1500
     28 H28       -13.0244    3.4090   60.8975 H       1  ZINC000176150038    0.1600
     29 H29        -8.6257    1.4182   62.8073 H       1  ZINC000176150038    0.4300
     30 H30        -7.2736    3.7741   67.5186 H       1  ZINC000176150038    0.2200
     31 H31        -6.1573   -0.1424   66.6978 H       1  ZINC000176150038    0.1900
     32 H32       -10.2734   -0.6086   61.6990 H       1  ZINC000176150038    0.1700
@<TRIPOS>BOND
     1     1     2    1
     2     1    24    1
     3     1    25    1
     4     1    26    1
     5     2     6    1
     6     2     3    2
     7     3     4    1
     8     4     5    2
     9     5     6    1
    10     6     7    1
    11     7    23   ar
    12     7     8   ar
    13     8     9   ar
    14     8    27    1
    15     9    10   ar
    16     9    28    1
    17    10    11    1
    18    10    12   ar
    19    12    13    1
    20    12    23   ar
    21    13    14   am
    22    13    29    1
    23    14    15    2
    24    14    16    1
    25    16    21   ar
    26    16    17   ar
    27    17    18   ar
    28    18    19   ar
    29    18    30    1
    30    19    20   ar
    31    20    21   ar
    32    20    31    1
    33    21    22    1
    34    23    32    1
@<TRIPOS>SUBSTRUCTURE
     1 ZINC000176150038        1 TEMP              0 ****  ****    0 ROOT


##########                                Name:    ZINC000518242403
##########                DOCK_Rotatable_Bonds:                   6
##########                         Heavy_Atoms:                  27
##########                    Molecular_Weight:             370.405
##########                DOCK_Rotatable_Bonds:                   6
##########                       Formal_Charge:          -0.0200004
##########                     HBond_Acceptors:                   7
##########                        HBond_Donors:                   1
##########                         Heavy_Atoms:                  27
##########                          Grid_Score:          -25.802170
##########                     Grid_vdw_energy:          -24.446598
##########                      Grid_es_energy:           -1.355571
##########           Internal_energy_repulsive:           17.068474

@<TRIPOS>MOLECULE
ZINC000518242403
 49 52 1 0 0
SMALL
USER_CHARGES


@<TRIPOS>ATOM
      1 C1        -11.6004    1.7173   64.2956 C.3     1  ZINC000518242403   -0.1800
      2 C2        -10.4811    1.9607   63.2814 C.3     1  ZINC000518242403    0.1000
      3 N3        -11.0629    2.3734   62.0018 N.am    1  ZINC000518242403   -0.6200
      4 C4        -11.2607    3.7958   61.7118 C.3     1  ZINC000518242403    0.1500
      5 C5        -10.0668    4.3245   60.9144 C.3     1  ZINC000518242403    0.0300
      6 H6        -10.1499    5.4055   60.8015 H       1  ZINC000518242403    0.0900
      7 C7         -8.7624    3.9795   61.6457 C.3     1  ZINC000518242403    0.0300
      8 O8         -7.6676    4.4752   60.8676 O.3     1  ZINC000518242403   -0.3000
      9 C9         -7.7008    4.2175   59.5316 C.ar    1  ZINC000518242403    0.0500
     10 C10        -6.5377    4.3371   58.7862 C.ar    1  ZINC000518242403   -0.1100
     11 C11        -6.5565    4.0818   57.4277 C.ar    1  ZINC000518242403   -0.1200
     12 C12        -7.7339    3.7066   56.8088 C.ar    1  ZINC000518242403   -0.1200
     13 C13        -8.8967    3.5840   57.5464 C.ar    1  ZINC000518242403   -0.1100
     14 C14        -8.8846    3.8375   58.9096 C.ar    1  ZINC000518242403    0.0500
     15 O15       -10.0358    3.7053   59.6238 O.3     1  ZINC000518242403   -0.3000
     16 C16       -11.4161    1.4446   61.0913 C.2     1  ZINC000518242403    0.7100
     17 O17       -11.8976    1.7871   60.0286 O.2     1  ZINC000518242403   -0.5700
     18 N18       -11.2356    0.1360   61.3587 N.am    1  ZINC000518242403   -0.6800
     19 C19       -11.6028   -0.8298   60.4120 C.ar    1  ZINC000518242403    0.1700
     20 C20       -12.9242   -0.9299   59.9995 C.ar    1  ZINC000518242403   -0.1000
     21 C21       -13.2866   -1.8844   59.0635 C.ar    1  ZINC000518242403    0.0500
     22 C22       -12.3233   -2.7421   58.5381 C.ar    1  ZINC000518242403    0.0200
     23 C23       -11.0054   -2.6393   58.9531 C.ar    1  ZINC000518242403   -0.0800
     24 C24       -10.6438   -1.6828   59.8825 C.ar    1  ZINC000518242403   -0.1000
     25 C25        -9.2094   -1.5739   60.3317 C.3     1  ZINC000518242403   -0.1100
     26 O26       -12.9271   -3.5811   57.6451 O.3     1  ZINC000518242403   -0.3100
     27 C27       -14.3355   -3.4993   57.9329 C.3     1  ZINC000518242403    0.2100
     28 O28       -14.4930   -2.1854   58.5001 O.3     1  ZINC000518242403   -0.3100
     29 H29       -12.1704    2.6359   64.4351 H       1  ZINC000518242403    0.0600
     30 H30       -12.2606    0.9324   63.9268 H       1  ZINC000518242403    0.0600
     31 H31       -11.1675    1.4103   65.2477 H       1  ZINC000518242403    0.0700
     32 H32        -9.8209    2.7457   63.6504 H       1  ZINC000518242403    0.1000
     33 H33        -9.9110    1.0423   63.1420 H       1  ZINC000518242403    0.0700
     34 H34       -12.1727    3.9243   61.1287 H       1  ZINC000518242403    0.1100
     35 H35       -11.3465    4.3488   62.6472 H       1  ZINC000518242403    0.0900
     36 H36        -8.7570    4.4494   62.6292 H       1  ZINC000518242403    0.1300
     37 H37        -8.6767    2.8982   61.7539 H       1  ZINC000518242403    0.0800
     38 H38        -5.6164    4.6303   59.2674 H       1  ZINC000518242403    0.1300
     39 H39        -5.6494    4.1754   56.8490 H       1  ZINC000518242403    0.1300
     40 H40        -7.7457    3.5092   55.7472 H       1  ZINC000518242403    0.1300
     41 H41        -9.8155    3.2907   57.0604 H       1  ZINC000518242403    0.1300
     42 H42       -10.8515   -0.1373   62.2065 H       1  ZINC000518242403    0.4100
     43 H43       -13.6697   -0.2640   60.4084 H       1  ZINC000518242403    0.1500
     44 H44       -10.2585   -3.3044   58.5457 H       1  ZINC000518242403    0.1400
     45 H45        -8.6765   -0.8808   59.6808 H       1  ZINC000518242403    0.0800
     46 H46        -9.1768   -1.2071   61.3576 H       1  ZINC000518242403    0.0700
     47 H47        -8.7376   -2.5552   60.2815 H       1  ZINC000518242403    0.0800
     48 H48       -14.9197   -3.5939   57.0175 H       1  ZINC000518242403    0.1300
     49 H49       -14.6242   -4.2647   58.6534 H       1  ZINC000518242403    0.0900
@<TRIPOS>BOND
     1     1     2    1
     2     1    29    1
     3     1    30    1
     4     1    31    1
     5     2     3    1
     6     2    32    1
     7     2    33    1
     8     3     4    1
     9     3    16   am
    10     4     5    1
    11     4    34    1
    12     4    35    1
    13     5     6    1
    14     5    15    1
    15     5     7    1
    16     7     8    1
    17     7    36    1
    18     7    37    1
    19     8     9    1
    20     9    14   ar
    21     9    10   ar
    22    10    11   ar
    23    10    38    1
    24    11    12   ar
    25    11    39    1
    26    12    13   ar
    27    12    40    1
    28    13    14   ar
    29    13    41    1
    30    14    15    1
    31    16    17    2
    32    16    18   am
    33    18    19    1
    34    18    42    1
    35    19    24   ar
    36    19    20   ar
    37    20    21   ar
    38    20    43    1
    39    21    28    1
    40    21    22   ar
    41    22    23   ar
    42    22    26    1
    43    23    24   ar
    44    23    44    1
    45    24    25    1
    46    25    45    1
    47    25    46    1
    48    25    47    1
    49    26    27    1
    50    27    28    1
    51    27    48    1
    52    27    49    1
@<TRIPOS>SUBSTRUCTURE
     1 ZINC000518242403        1 TEMP              0 ****  ****    0 ROOT


##########                                Name:    ZINC000656860804
##########                DOCK_Rotatable_Bonds:                   2
##########                         Heavy_Atoms:                  19
##########                    Molecular_Weight:             388.068
##########                DOCK_Rotatable_Bonds:                   2
##########                       Formal_Charge:          8.9407e-08
##########                     HBond_Acceptors:                   8
##########                        HBond_Donors:                   1
##########                         Heavy_Atoms:                  19
##########                          Grid_Score:          -25.758572
##########                     Grid_vdw_energy:          -23.906389
##########                      Grid_es_energy:           -1.852183
##########           Internal_energy_repulsive:           14.263258

@<TRIPOS>MOLECULE
ZINC000656860804
 28 29 1 0 0
SMALL
USER_CHARGES


@<TRIPOS>ATOM
      1 O1        -13.0928    1.7520   64.0110 O.2     1  ZINC000656860804   -0.5400
      2 C2        -12.1788    1.9448   63.2375 C.2     1  ZINC000656860804    0.5100
      3 C3        -11.0469    0.9544   63.2031 C.3     1  ZINC000656860804    0.1100
      4 N4        -10.2268    1.2100   62.0096 N.am    1  ZINC000656860804   -1.0000
      5 S5         -9.6650   -0.0313   61.0683 S.o2    1  ZINC000656860804    2.6900
      6 O6         -9.0513    0.5696   59.9363 O.2     1  ZINC000656860804   -0.9200
      7 O7         -8.9826   -0.9203   61.9419 O.2     1  ZINC000656860804   -0.9300
      8 C8        -11.0706   -0.9067   60.4661 C.ar    1  ZINC000656860804   -0.6500
      9 C9        -12.3410   -0.4115   60.6908 C.ar    1  ZINC000656860804    0.0100
     10 C10       -13.4450   -1.0985   60.2182 C.ar    1  ZINC000656860804   -0.0400
     11 Cl11      -15.0410   -0.4762   60.5001 Cl      1  ZINC000656860804   -0.0200
     12 C12       -13.2767   -2.2822   59.5200 C.ar    1  ZINC000656860804    0.0200
     13 Cl13      -14.6614   -3.1445   58.9261 Cl      1  ZINC000656860804   -0.0100
     14 C14       -12.0046   -2.7771   59.2954 C.ar    1  ZINC000656860804   -0.0900
     15 C15       -10.9016   -2.0865   59.7634 C.ar    1  ZINC000656860804    0.0100
     16 Br16       -9.1627   -2.7630   59.4566 Br      1  ZINC000656860804    0.0100
     17 C17        -9.9259    2.6145   61.6850 C.3     1  ZINC000656860804    0.0900
     18 C18       -11.2480    3.3375   61.4208 C.3     1  ZINC000656860804    0.0800
     19 N19       -12.2259    3.0223   62.4527 N.am    1  ZINC000656860804   -0.7100
     20 H20       -10.4348    1.0683   64.0978 H       1  ZINC000656860804    0.1200
     21 H21       -11.4487   -0.0579   63.1601 H       1  ZINC000656860804    0.1200
     22 H22       -12.4721    0.5116   61.2359 H       1  ZINC000656860804    0.1700
     23 H23       -11.8727   -3.7005   58.7512 H       1  ZINC000656860804    0.1700
     24 H24        -9.4113    3.0837   62.5237 H       1  ZINC000656860804    0.1000
     25 H25        -9.2976    2.6601   60.7955 H       1  ZINC000656860804    0.1200
     26 H26       -11.0722    4.4131   61.4066 H       1  ZINC000656860804    0.1000
     27 H27       -11.6401    3.0259   60.4527 H       1  ZINC000656860804    0.0800
     28 H28       -12.9602    3.6426   62.5828 H       1  ZINC000656860804    0.4000
@<TRIPOS>BOND
     1     1     2    2
     2     2    19   am
     3     2     3    1
     4     3     4    1
     5     3    20    1
     6     3    21    1
     7     4     5   am
     8     4    17    1
     9     5     6    2
    10     5     7    2
    11     5     8    1
    12     8    15   ar
    13     8     9   ar
    14     9    10   ar
    15     9    22    1
    16    10    11    1
    17    10    12   ar
    18    12    13    1
    19    12    14   ar
    20    14    15   ar
    21    14    23    1
    22    15    16    1
    23    17    18    1
    24    17    24    1
    25    17    25    1
    26    18    19    1
    27    18    26    1
    28    18    27    1
    29    19    28    1
@<TRIPOS>SUBSTRUCTURE
     1 ZINC000656860804        1 TEMP              0 ****  ****    0 ROOT


##########                                Name:    ZINC000463474628
##########                DOCK_Rotatable_Bonds:                   5
##########                         Heavy_Atoms:                  25
##########                    Molecular_Weight:              407.35
##########                DOCK_Rotatable_Bonds:                   5
##########                       Formal_Charge:           0.0200004
##########                     HBond_Acceptors:                   4
##########                        HBond_Donors:                   0
##########                         Heavy_Atoms:                  25
##########                          Grid_Score:          -25.736380
##########                     Grid_vdw_energy:          -24.202589
##########                      Grid_es_energy:           -1.533790
##########           Internal_energy_repulsive:           21.698221

@<TRIPOS>MOLECULE
ZINC000463474628
 52 54 1 0 0
SMALL
USER_CHARGES


@<TRIPOS>ATOM
      1 C1        -11.6298    4.5398   52.9254 C.3     1  ZINC000463474628   -0.1400
      2 C2        -12.3532    3.8598   54.0895 C.3     1  ZINC000463474628   -0.1300
      3 C3        -12.0487    2.3605   54.0733 C.3     1  ZINC000463474628    0.1400
      4 H4        -10.9773    2.1987   54.1914 H       1  ZINC000463474628    0.0800
      5 C5        -12.5296    1.7418   52.7438 C.3     1  ZINC000463474628   -0.1300
      6 C6        -13.0923    0.3648   53.1849 C.3     1  ZINC000463474628   -0.1300
      7 C7        -13.7075    0.7076   54.5646 C.3     1  ZINC000463474628    0.0900
      8 N8        -12.7784    1.6903   55.1596 N.am    1  ZINC000463474628   -0.6100
      9 C9        -12.6281    1.9316   56.4769 C.2     1  ZINC000463474628    0.5300
     10 O10       -11.8317    2.7651   56.8538 O.2     1  ZINC000463474628   -0.5100
     11 C11       -13.4497    1.1657   57.4817 C.3     1  ZINC000463474628   -0.1200
     12 H12       -13.8118    0.2431   57.0282 H       1  ZINC000463474628    0.1000
     13 C13       -14.6406    2.0189   57.9244 C.3     1  ZINC000463474628   -0.1000
     14 C14       -15.4937    1.2297   58.9200 C.3     1  ZINC000463474628   -0.1300
     15 C15       -14.6520    0.8963   60.1558 C.3     1  ZINC000463474628    0.0900
     16 N16       -13.4316    0.2018   59.7234 N.am    1  ZINC000463474628   -0.6000
     17 C17       -13.0953   -0.9905   60.2543 C.2     1  ZINC000463474628    0.5700
     18 O18       -13.8043   -1.5012   61.0994 O.2     1  ZINC000463474628   -0.5200
     19 C19       -11.8645   -1.6769   59.8090 C.ar    1  ZINC000463474628   -0.1200
     20 C20       -11.9309   -2.6703   58.8307 C.ar    1  ZINC000463474628   -0.0800
     21 C21       -10.7789   -3.3074   58.4193 C.ar    1  ZINC000463474628   -0.1000
     22 C22        -9.5581   -2.9634   58.9749 C.ar    1  ZINC000463474628   -0.0700
     23 Br23       -7.9833   -3.8413   58.4048 Br      1  ZINC000463474628   -0.0400
     24 C24        -9.4858   -1.9786   59.9460 C.ar    1  ZINC000463474628   -0.0900
     25 C25       -10.6297   -1.3305   60.3613 C.ar    1  ZINC000463474628   -0.0300
     26 C26       -10.5493   -0.2592   61.4182 C.3     1  ZINC000463474628   -0.1300
     27 C27       -12.5845    0.8310   58.7008 C.3     1  ZINC000463474628    0.1200
     28 H28       -10.5998    4.7519   53.2118 H       1  ZINC000463474628    0.0700
     29 H29       -11.6371    3.8799   52.0579 H       1  ZINC000463474628    0.0600
     30 H30       -12.1372    5.4720   52.6770 H       1  ZINC000463474628    0.0300
     31 H31       -12.0109    4.2900   55.0308 H       1  ZINC000463474628    0.0600
     32 H32       -13.4276    4.0135   53.9892 H       1  ZINC000463474628    0.0700
     33 H33       -13.3129    2.3526   52.2952 H       1  ZINC000463474628    0.0800
     34 H34       -11.6955    1.6145   52.0537 H       1  ZINC000463474628    0.0800
     35 H35       -13.8575    0.0152   52.4918 H       1  ZINC000463474628    0.0900
     36 H36       -12.2933   -0.3699   53.2851 H       1  ZINC000463474628    0.0800
     37 H37       -14.6973    1.1466   54.4400 H       1  ZINC000463474628    0.0700
     38 H38       -13.7632   -0.1851   55.1875 H       1  ZINC000463474628    0.0800
     39 H39       -14.2778    2.9303   58.3995 H       1  ZINC000463474628    0.0800
     40 H40       -15.2444    2.2787   57.0548 H       1  ZINC000463474628    0.0700
     41 H41       -16.3544    1.8290   59.2170 H       1  ZINC000463474628    0.0800
     42 H42       -15.8365    0.3061   58.4534 H       1  ZINC000463474628    0.0700
     43 H43       -14.3842    1.8167   60.6747 H       1  ZINC000463474628    0.0800
     44 H44       -15.2226    0.2508   60.8234 H       1  ZINC000463474628    0.1000
     45 H45       -12.8826   -2.9397   58.3969 H       1  ZINC000463474628    0.1400
     46 H46       -10.8290   -4.0763   57.6627 H       1  ZINC000463474628    0.1400
     47 H47        -8.5307   -1.7148   60.3759 H       1  ZINC000463474628    0.1400
     48 H48       -10.4873    0.7185   60.9405 H       1  ZINC000463474628    0.0700
     49 H49       -11.4390   -0.3010   62.0464 H       1  ZINC000463474628    0.0900
     50 H50        -9.6631   -0.4204   62.0321 H       1  ZINC000463474628    0.0700
     51 H51       -11.7914    0.1425   58.4091 H       1  ZINC000463474628    0.1000
     52 H52       -12.1480    1.7463   59.1006 H       1  ZINC000463474628    0.0800
@<TRIPOS>BOND
     1     1     2    1
     2     1    28    1
     3     1    29    1
     4     1    30    1
     5     2     3    1
     6     2    31    1
     7     2    32    1
     8     3     4    1
     9     3     8    1
    10     3     5    1
    11     5     6    1
    12     5    33    1
    13     5    34    1
    14     6     7    1
    15     6    35    1
    16     6    36    1
    17     7     8    1
    18     7    37    1
    19     7    38    1
    20     8     9   am
    21     9    10    2
    22     9    11    1
    23    11    12    1
    24    11    27    1
    25    11    13    1
    26    13    14    1
    27    13    39    1
    28    13    40    1
    29    14    15    1
    30    14    41    1
    31    14    42    1
    32    15    16    1
    33    15    43    1
    34    15    44    1
    35    16    17   am
    36    16    27    1
    37    17    18    2
    38    17    19    1
    39    19    25   ar
    40    19    20   ar
    41    20    21   ar
    42    20    45    1
    43    21    22   ar
    44    21    46    1
    45    22    23    1
    46    22    24   ar
    47    24    25   ar
    48    24    47    1
    49    25    26    1
    50    26    48    1
    51    26    49    1
    52    26    50    1
    53    27    51    1
    54    27    52    1
@<TRIPOS>SUBSTRUCTURE
     1 ZINC000463474628        1 TEMP              0 ****  ****    0 ROOT


##########                                Name:    ZINC000265724350
##########                DOCK_Rotatable_Bonds:                   8
##########                         Heavy_Atoms:                  23
##########                    Molecular_Weight:              345.42
##########                DOCK_Rotatable_Bonds:                   8
##########                       Formal_Charge:          -0.0300002
##########                     HBond_Acceptors:                   9
##########                        HBond_Donors:                   2
##########                         Heavy_Atoms:                  23
##########                          Grid_Score:          -25.705141
##########                     Grid_vdw_energy:          -23.352022
##########                      Grid_es_energy:           -2.353119
##########           Internal_energy_repulsive:           10.898000

@<TRIPOS>MOLECULE
ZINC000265724350
 46 47 1 0 0
SMALL
USER_CHARGES


@<TRIPOS>ATOM
      1 C1         -4.7969   -3.6769   57.7629 C.3     1  ZINC000265724350    0.0800
      2 N2         -6.2517   -3.5202   57.6915 N.am    1  ZINC000265724350   -1.1100
      3 S3         -7.0746   -4.0314   56.3485 S.o2    1  ZINC000265724350    2.7200
      4 O4         -6.6590   -3.1923   55.2797 O.2     1  ZINC000265724350   -0.9300
      5 O5         -6.9530   -5.4468   56.3179 O.2     1  ZINC000265724350   -0.9300
      6 C6         -8.7809   -3.6845   56.6189 C.2     1  ZINC000265724350   -0.5600
      7 C7         -9.7932   -4.0197   55.7888 C.2     1  ZINC000265724350   -0.0900
      8 C8        -10.9808   -3.5594   56.3789 C.2     1  ZINC000265724350   -0.1400
      9 C9        -10.6285   -2.9593   57.5536 C.2     1  ZINC000265724350   -0.0200
     10 C10       -11.5463   -2.3308   58.5095 C.2     1  ZINC000265724350    0.6000
     11 O11       -12.7444   -2.3359   58.2960 O.2     1  ZINC000265724350   -0.5000
     12 N12       -11.0629   -1.7476   59.6242 N.am    1  ZINC000265724350   -0.7100
     13 C13       -11.9799   -1.1213   60.5798 C.3     1  ZINC000265724350    0.1200
     14 C14       -11.6316    0.3616   60.7239 C.3     1  ZINC000265724350   -0.1100
     15 H15       -11.6181    0.8291   59.7394 H       1  ZINC000265724350    0.0800
     16 C16       -12.6803    1.0488   61.6006 C.3     1  ZINC000265724350   -0.1400
     17 C17       -10.2533    0.5009   61.3736 C.3     1  ZINC000265724350    0.0600
     18 N18       -10.2774    1.6064   62.3406 N.3     1  ZINC000265724350   -0.5300
     19 C19        -9.8485    2.8648   61.7132 C.3     1  ZINC000265724350    0.0100
     20 C20        -9.9454    3.9985   62.7375 C.3     1  ZINC000265724350    0.0600
     21 O21        -9.1556    3.6680   63.8830 O.3     1  ZINC000265724350   -0.3900
     22 C22        -9.5464    2.4483   64.5194 C.3     1  ZINC000265724350    0.0600
     23 C23        -9.4454    1.2989   63.5132 C.3     1  ZINC000265724350    0.0200
     24 O24        -9.2888   -3.0505   57.6837 O.3     1  ZINC000265724350   -0.1100
     25 H25        -4.4355   -3.2860   58.7141 H       1  ZINC000265724350    0.0900
     26 H26        -4.5409   -4.7335   57.6837 H       1  ZINC000265724350    0.0600
     27 H27        -4.3316   -3.1280   56.9442 H       1  ZINC000265724350    0.0700
     28 H28        -6.7330   -3.1168   58.4309 H       1  ZINC000265724350    0.4200
     29 H29        -9.7051   -4.5432   54.8483 H       1  ZINC000265724350    0.1800
     30 H30       -11.9796   -3.6603   55.9807 H       1  ZINC000265724350    0.1700
     31 H31       -10.1078   -1.7424   59.7937 H       1  ZINC000265724350    0.4100
     32 H32       -13.0037   -1.2207   60.2196 H       1  ZINC000265724350    0.0800
     33 H33       -11.8862   -1.6123   61.5484 H       1  ZINC000265724350    0.0700
     34 H34       -13.6623    0.9496   61.1379 H       1  ZINC000265724350    0.0500
     35 H35       -12.6937    0.5814   62.5852 H       1  ZINC000265724350    0.0600
     36 H36       -12.4322    2.1052   61.7034 H       1  ZINC000265724350    0.0700
     37 H37        -9.9985   -0.4259   61.8875 H       1  ZINC000265724350    0.0800
     38 H38        -9.5085    0.7068   60.6048 H       1  ZINC000265724350    0.0400
     39 H39        -8.8174    2.7689   61.3728 H       1  ZINC000265724350    0.0400
     40 H40       -10.4939    3.0861   60.8631 H       1  ZINC000265724350    0.0900
     41 H41        -9.5745    4.9225   62.2938 H       1  ZINC000265724350    0.1000
     42 H42       -10.9850    4.1299   63.0377 H       1  ZINC000265724350    0.0600
     43 H43        -8.8869    2.2511   65.3645 H       1  ZINC000265724350    0.1000
     44 H44       -10.5744    2.5346   64.8714 H       1  ZINC000265724350    0.0600
     45 H45        -9.7966    0.3772   63.9769 H       1  ZINC000265724350    0.0900
     46 H46        -8.4079    1.1780   63.2016 H       1  ZINC000265724350    0.0400
@<TRIPOS>BOND
     1     1     2    1
     2     1    25    1
     3     1    26    1
     4     1    27    1
     5     2     3   am
     6     2    28    1
     7     3     4    2
     8     3     5    2
     9     3     6    1
    10     6    24    1
    11     6     7    2
    12     7     8    1
    13     7    29    1
    14     8     9    2
    15     8    30    1
    16     9    10    1
    17     9    24    1
    18    10    11    2
    19    10    12   am
    20    12    13    1
    21    12    31    1
    22    13    14    1
    23    13    32    1
    24    13    33    1
    25    14    15    1
    26    14    16    1
    27    14    17    1
    28    16    34    1
    29    16    35    1
    30    16    36    1
    31    17    18    1
    32    17    37    1
    33    17    38    1
    34    18    23    1
    35    18    19    1
    36    19    20    1
    37    19    39    1
    38    19    40    1
    39    20    21    1
    40    20    41    1
    41    20    42    1
    42    21    22    1
    43    22    23    1
    44    22    43    1
    45    22    44    1
    46    23    45    1
    47    23    46    1
@<TRIPOS>SUBSTRUCTURE
     1 ZINC000265724350        1 TEMP              0 ****  ****    0 ROOT


##########                                Name:    ZINC001386869844
##########                DOCK_Rotatable_Bonds:                   9
##########                         Heavy_Atoms:                  25
##########                    Molecular_Weight:             345.485
##########                DOCK_Rotatable_Bonds:                   9
##########                       Formal_Charge:          -0.0300003
##########                     HBond_Acceptors:                   5
##########                        HBond_Donors:                   2
##########                         Heavy_Atoms:                  25
##########                          Grid_Score:          -25.685440
##########                     Grid_vdw_energy:          -24.227882
##########                      Grid_es_energy:           -1.457557
##########           Internal_energy_repulsive:           90.233887

@<TRIPOS>MOLECULE
ZINC001386869844
 56 58 1 0 0
SMALL
USER_CHARGES


@<TRIPOS>ATOM
      1 C1        -12.4933    3.6178   62.5087 C.3     1  ZINC001386869844    0.0600
      2 N2        -11.9869    2.5041   61.7026 N.am    1  ZINC001386869844   -0.6200
      3 C3        -11.2990    2.7697   60.4368 C.3     1  ZINC001386869844    0.1100
      4 C4         -9.8143    3.0224   60.7065 C.3     1  ZINC001386869844    0.1000
      5 N5         -9.0936    3.1025   59.4335 N.am    1  ZINC001386869844   -0.7300
      6 C6         -8.0098    3.8959   59.3215 C.2     1  ZINC001386869844    0.5200
      7 O7         -7.6343    4.5474   60.2730 O.2     1  ZINC001386869844   -0.5300
      8 C8         -7.2684    3.9783   58.0121 C.3     1  ZINC001386869844   -0.1300
      9 C9         -6.6347    5.3637   57.8712 C.3     1  ZINC001386869844   -0.0100
     10 C10        -7.7300    6.4313   57.9044 C.3     1  ZINC001386869844   -0.1500
     11 C11        -5.6588    5.5980   59.0260 C.3     1  ZINC001386869844   -0.1600
     12 C12        -5.8813    5.4470   56.5420 C.3     1  ZINC001386869844   -0.1500
     13 C13        -6.0588    4.2909   55.5557 C.3     1  ZINC001386869844   -0.1900
     14 C14        -4.7392    4.4547   56.3140 C.3     1  ZINC001386869844   -0.1800
     15 C15       -12.1540    1.2354   62.1256 C.2     1  ZINC001386869844    0.5900
     16 O16       -12.7255    1.0150   63.1771 O.2     1  ZINC001386869844   -0.5200
     17 C17       -11.6470    0.1205   61.3186 C.2     1  ZINC001386869844   -0.0600
     18 C18       -10.3448   -0.3368   61.2865 C.2     1  ZINC001386869844   -0.0900
     19 C19       -10.3102   -1.4030   60.3915 C.2     1  ZINC001386869844   -0.1700
     20 C20       -11.5647   -1.5791   59.8979 C.2     1  ZINC001386869844    0.0500
     21 C21       -11.9305   -2.6426   58.8900 C.3     1  ZINC001386869844   -0.0600
     22 C22       -10.6408   -3.1595   58.2418 C.3     1  ZINC001386869844   -0.1100
     23 C23        -9.6307   -3.5252   59.3328 C.3     1  ZINC001386869844   -0.1200
     24 C24        -9.1199   -2.2454   60.0057 C.3     1  ZINC001386869844   -0.0500
     25 N25       -12.3852   -0.6642   60.4595 N.pl3   1  ZINC001386869844   -0.5400
     26 H26       -13.5497    3.7736   62.2901 H       1  ZINC001386869844    0.0600
     27 H27       -12.3717    3.3853   63.5667 H       1  ZINC001386869844    0.0800
     28 H28       -11.9353    4.5229   62.2691 H       1  ZINC001386869844    0.0900
     29 H29       -11.7368    3.6481   59.9627 H       1  ZINC001386869844    0.1000
     30 H30       -11.4071    1.9088   59.7770 H       1  ZINC001386869844    0.0900
     31 H31        -9.4090    2.2048   61.3026 H       1  ZINC001386869844    0.0700
     32 H32        -9.6982    3.9604   61.2494 H       1  ZINC001386869844    0.0700
     33 H33        -9.3963    2.5845   58.6713 H       1  ZINC001386869844    0.4000
     34 H34        -6.4881    3.2176   57.9879 H       1  ZINC001386869844    0.0900
     35 H35        -7.9639    3.8115   57.1896 H       1  ZINC001386869844    0.0900
     36 H36        -8.2667    6.3719   58.8512 H       1  ZINC001386869844    0.0800
     37 H37        -7.2784    7.4184   57.8040 H       1  ZINC001386869844    0.0500
     38 H38        -8.4252    6.2644   57.0816 H       1  ZINC001386869844    0.0500
     39 H39        -4.8785    4.8374   59.0024 H       1  ZINC001386869844    0.0500
     40 H40        -5.2072    6.5850   58.9256 H       1  ZINC001386869844    0.0500
     41 H41        -6.1955    5.5385   59.9729 H       1  ZINC001386869844    0.0800
     42 H42        -5.7678    6.4488   56.1280 H       1  ZINC001386869844    0.1000
     43 H43        -6.7122    3.4709   55.8537 H       1  ZINC001386869844    0.1000
     44 H44        -6.0617    4.5322   54.4927 H       1  ZINC001386869844    0.0900
     45 H45        -3.8745    4.8038   55.7495 H       1  ZINC001386869844    0.0900
     46 H46        -4.5245    3.7427   57.1108 H       1  ZINC001386869844    0.0900
     47 H47        -9.5111    0.0578   61.8485 H       1  ZINC001386869844    0.1500
     48 H48       -12.4433   -3.4632   59.3919 H       1  ZINC001386869844    0.0800
     49 H49       -12.5800   -2.2160   58.1255 H       1  ZINC001386869844    0.0800
     50 H50       -10.8639   -4.0423   57.6427 H       1  ZINC001386869844    0.0700
     51 H51       -10.2196   -2.3838   57.6023 H       1  ZINC001386869844    0.0700
     52 H52       -10.1130   -4.1593   60.0767 H       1  ZINC001386869844    0.0600
     53 H53        -8.7926   -4.0609   58.8872 H       1  ZINC001386869844    0.0700
     54 H54        -8.4884   -1.6921   59.3107 H       1  ZINC001386869844    0.0700
     55 H55        -8.5478   -2.5026   60.8973 H       1  ZINC001386869844    0.0700
     56 H56       -13.3351   -0.5736   60.2854 H       1  ZINC001386869844    0.4200
@<TRIPOS>BOND
     1     1     2    1
     2     1    26    1
     3     1    27    1
     4     1    28    1
     5     2     3    1
     6     2    15   am
     7     3     4    1
     8     3    29    1
     9     3    30    1
    10     4     5    1
    11     4    31    1
    12     4    32    1
    13     5     6   am
    14     5    33    1
    15     6     7    2
    16     6     8    1
    17     8     9    1
    18     8    34    1
    19     8    35    1
    20     9    10    1
    21     9    11    1
    22     9    12    1
    23    10    36    1
    24    10    37    1
    25    10    38    1
    26    11    39    1
    27    11    40    1
    28    11    41    1
    29    12    14    1
    30    12    13    1
    31    12    42    1
    32    13    14    1
    33    13    43    1
    34    13    44    1
    35    14    45    1
    36    14    46    1
    37    15    16    2
    38    15    17    1
    39    17    25    1
    40    17    18    2
    41    18    19    1
    42    18    47    1
    43    19    24    1
    44    19    20    2
    45    20    21    1
    46    20    25    1
    47    21    22    1
    48    21    48    1
    49    21    49    1
    50    22    23    1
    51    22    50    1
    52    22    51    1
    53    23    24    1
    54    23    52    1
    55    23    53    1
    56    24    54    1
    57    24    55    1
    58    25    56    1
@<TRIPOS>SUBSTRUCTURE
     1 ZINC001386869844        1 TEMP              0 ****  ****    0 ROOT


##########                                Name:    ZINC001625935330
##########                DOCK_Rotatable_Bonds:                   5
##########                         Heavy_Atoms:                  25
##########                    Molecular_Weight:             327.385
##########                DOCK_Rotatable_Bonds:                   5
##########                       Formal_Charge:           0.0199995
##########                     HBond_Acceptors:                   4
##########                        HBond_Donors:                   1
##########                         Heavy_Atoms:                  25
##########                          Grid_Score:          -25.633854
##########                     Grid_vdw_energy:          -24.235939
##########                      Grid_es_energy:           -1.397915
##########           Internal_energy_repulsive:            6.646762

@<TRIPOS>MOLECULE
ZINC001625935330
 42 44 1 0 0
SMALL
USER_CHARGES


@<TRIPOS>ATOM
      1 C1        -14.4221    3.6254   60.5152 C.3     1  ZINC001625935330   -0.1600
      2 C2        -14.7838    2.5139   61.5025 C.3     1  ZINC001625935330    0.1800
      3 H3        -15.8616    2.5089   61.6650 H       1  ZINC001625935330    0.1000
      4 N4        -14.3663    1.2204   60.9559 N.am    1  ZINC001625935330   -0.7100
      5 C5        -15.2924    0.3343   60.5393 C.2     1  ZINC001625935330    0.5800
      6 O6        -16.4738    0.6076   60.6183 O.2     1  ZINC001625935330   -0.5300
      7 C7        -14.8702   -0.9733   59.9848 C.ar    1  ZINC001625935330    0.0800
      8 C8        -13.5240   -1.2101   59.7289 C.ar    1  ZINC001625935330   -0.1000
      9 C9        -13.1431   -2.4493   59.2065 C.ar    1  ZINC001625935330    0.0000
     10 C10       -11.7189   -2.7484   58.9176 C.ar    1  ZINC001625935330   -0.0600
     11 C11       -10.7451   -2.5171   59.8872 C.ar    1  ZINC001625935330   -0.1000
     12 C12        -9.4219   -2.7977   59.6132 C.ar    1  ZINC001625935330   -0.1200
     13 C13        -9.0615   -3.3075   58.3788 C.ar    1  ZINC001625935330   -0.1100
     14 C14       -10.0240   -3.5390   57.4126 C.ar    1  ZINC001625935330   -0.1200
     15 C15       -11.3508   -3.2670   57.6776 C.ar    1  ZINC001625935330   -0.1000
     16 C16       -14.1385   -3.3988   58.9637 C.ar    1  ZINC001625935330   -0.1400
     17 C17       -15.4558   -3.0836   59.2462 C.ar    1  ZINC001625935330    0.1100
     18 N18       -15.7806   -1.9094   59.7424 N.ar    1  ZINC001625935330   -0.4600
     19 C19       -14.0793    2.7566   62.8124 C.ar    1  ZINC001625935330   -0.0900
     20 C20       -14.7448    3.3892   63.8471 C.ar    1  ZINC001625935330   -0.0800
     21 C21       -14.1055    3.6161   65.0532 C.ar    1  ZINC001625935330   -0.1100
     22 C22       -12.7990    3.2118   65.2315 C.ar    1  ZINC001625935330   -0.0700
     23 C23       -12.1212    2.5722   64.1914 C.ar    1  ZINC001625935330   -0.0200
     24 C24       -10.7646    2.1496   64.3694 C.1     1  ZINC001625935330    0.2500
     25 N25        -9.6884    1.8144   64.5107 N.1     1  ZINC001625935330   -0.4100
     26 C26       -12.7739    2.3422   62.9788 C.ar    1  ZINC001625935330   -0.0600
     27 H27       -14.7327    4.5878   60.9218 H       1  ZINC001625935330    0.0700
     28 H28       -13.3443    3.6304   60.3526 H       1  ZINC001625935330    0.0600
     29 H29       -14.9316    3.4498   59.5677 H       1  ZINC001625935330    0.0700
     30 H30       -13.4234    1.0016   60.8938 H       1  ZINC001625935330    0.4100
     31 H31       -12.7849   -0.4489   59.9304 H       1  ZINC001625935330    0.1500
     32 H32       -11.0254   -2.1188   60.8512 H       1  ZINC001625935330    0.1300
     33 H33        -8.6663   -2.6186   60.3638 H       1  ZINC001625935330    0.1300
     34 H34        -8.0248   -3.5252   58.1685 H       1  ZINC001625935330    0.1300
     35 H35        -9.7370   -3.9368   56.4505 H       1  ZINC001625935330    0.1300
     36 H36       -12.1015   -3.4484   56.9227 H       1  ZINC001625935330    0.1300
     37 H37       -13.8829   -4.3674   58.5601 H       1  ZINC001625935330    0.1400
     38 H38       -16.2290   -3.8143   59.0599 H       1  ZINC001625935330    0.1700
     39 H39       -15.7680    3.7079   63.7127 H       1  ZINC001625935330    0.1300
     40 H40       -14.6306    4.1112   65.8566 H       1  ZINC001625935330    0.1400
     41 H41       -12.3010    3.3898   66.1732 H       1  ZINC001625935330    0.1400
     42 H42       -12.2556    1.8481   62.1704 H       1  ZINC001625935330    0.1400
@<TRIPOS>BOND
     1     1     2    1
     2     1    27    1
     3     1    28    1
     4     1    29    1
     5     2     3    1
     6     2     4    1
     7     2    19    1
     8     4     5   am
     9     4    30    1
    10     5     6    2
    11     5     7    1
    12     7    18   ar
    13     7     8   ar
    14     8     9   ar
    15     8    31    1
    16     9    10    1
    17     9    16   ar
    18    10    15   ar
    19    10    11   ar
    20    11    12   ar
    21    11    32    1
    22    12    13   ar
    23    12    33    1
    24    13    14   ar
    25    13    34    1
    26    14    15   ar
    27    14    35    1
    28    15    36    1
    29    16    17   ar
    30    16    37    1
    31    17    18   ar
    32    17    38    1
    33    19    26   ar
    34    19    20   ar
    35    20    21   ar
    36    20    39    1
    37    21    22   ar
    38    21    40    1
    39    22    23   ar
    40    22    41    1
    41    23    24    1
    42    23    26   ar
    43    24    25    3
    44    26    42    1
@<TRIPOS>SUBSTRUCTURE
     1 ZINC001625935330        1 TEMP              0 ****  ****    0 ROOT


##########                                Name:    ZINC000931749147
##########                DOCK_Rotatable_Bonds:                   5
##########                         Heavy_Atoms:                  25
##########                    Molecular_Weight:             354.397
##########                DOCK_Rotatable_Bonds:                   5
##########                       Formal_Charge:        -4.76837e-07
##########                     HBond_Acceptors:                   7
##########                        HBond_Donors:                   1
##########                         Heavy_Atoms:                  25
##########                          Grid_Score:          -25.621559
##########                     Grid_vdw_energy:          -25.567436
##########                      Grid_es_energy:           -0.054123
##########           Internal_energy_repulsive:           83.688110

@<TRIPOS>MOLECULE
ZINC000931749147
 49 51 1 0 0
SMALL
USER_CHARGES


@<TRIPOS>ATOM
      1 C1        -11.5840   -3.0060   56.9975 C.3     1  ZINC000931749147   -0.1100
      2 C2        -10.2545   -3.2076   57.6779 C.ar    1  ZINC000931749147   -0.1300
      3 C3        -10.0649   -2.7611   58.9784 C.ar    1  ZINC000931749147    0.1800
      4 N4        -11.1090   -2.1232   59.6598 N.am    1  ZINC000931749147   -0.6800
      5 C5        -10.9835   -0.8332   60.0295 C.2     1  ZINC000931749147    0.7100
      6 O6         -9.9637   -0.2232   59.7713 O.2     1  ZINC000931749147   -0.5500
      7 N7        -11.9882   -0.2192   60.6851 N.am    1  ZINC000931749147   -0.6200
      8 C8        -13.2317   -0.9366   61.0085 C.3     1  ZINC000931749147    0.0700
      9 C9        -14.4170   -0.0861   60.5376 C.3     1  ZINC000931749147    0.0500
     10 O10       -14.2893    1.2347   61.0696 O.3     1  ZINC000931749147   -0.3700
     11 C11       -13.1254    1.9351   60.6241 C.3     1  ZINC000931749147    0.0500
     12 C12       -11.8718    1.1866   61.1043 C.3     1  ZINC000931749147    0.1300
     13 H13       -11.8017    1.2469   62.1903 H       1  ZINC000931749147    0.0900
     14 C14       -10.6256    1.8098   60.4722 C.3     1  ZINC000931749147   -0.1100
     15 C15       -10.6220    3.3177   60.7317 C.3     1  ZINC000931749147   -0.1000
     16 C16       -10.6394    3.5779   62.2411 C.3     1  ZINC000931749147   -0.1500
     17 C17       -10.5561    5.0857   62.4921 C.3     1  ZINC000931749147    0.0600
     18 O18        -9.3720    5.6042   61.8825 O.3     1  ZINC000931749147   -0.3800
     19 C19        -9.3223    5.4317   60.4648 C.3     1  ZINC000931749147    0.0600
     20 C20        -9.3560    3.9377   60.1323 C.3     1  ZINC000931749147   -0.1500
     21 C21        -8.8390   -2.9480   59.6033 C.ar    1  ZINC000931749147   -0.1200
     22 C22        -7.8099   -3.5777   58.9308 C.ar    1  ZINC000931749147   -0.1100
     23 C23        -7.9990   -4.0230   57.6338 C.ar    1  ZINC000931749147    0.0500
     24 F24        -6.9910   -4.6387   56.9780 F       1  ZINC000931749147   -0.1300
     25 C25        -9.2238   -3.8430   57.0091 C.ar    1  ZINC000931749147    0.0900
     26 F26        -9.4069   -4.2782   55.7433 F       1  ZINC000931749147   -0.1200
     27 H27       -12.2275   -3.8630   57.1960 H       1  ZINC000931749147    0.0800
     28 H28       -12.0551   -2.1012   57.3815 H       1  ZINC000931749147    0.0700
     29 H29       -11.4309   -2.9077   55.9228 H       1  ZINC000931749147    0.0800
     30 H30       -11.9226   -2.6097   59.8658 H       1  ZINC000931749147    0.4100
     31 H31       -13.2440   -1.8988   60.4966 H       1  ZINC000931749147    0.0800
     32 H32       -13.2963   -1.0922   62.0854 H       1  ZINC000931749147    0.0900
     33 H33       -14.4228   -0.0410   59.4486 H       1  ZINC000931749147    0.0600
     34 H34       -15.3474   -0.5320   60.8893 H       1  ZINC000931749147    0.1100
     35 H35       -13.1266    1.9876   59.5353 H       1  ZINC000931749147    0.0600
     36 H36       -13.1267    2.9435   61.0379 H       1  ZINC000931749147    0.1100
     37 H37        -9.7335    1.3634   60.9113 H       1  ZINC000931749147    0.1100
     38 H38       -10.6327    1.6261   59.3978 H       1  ZINC000931749147    0.0700
     39 H39       -11.5016    3.7688   60.2724 H       1  ZINC000931749147    0.0700
     40 H40       -11.5638    3.1882   62.6673 H       1  ZINC000931749147    0.0700
     41 H41        -9.7862    3.0835   62.7058 H       1  ZINC000931749147    0.0700
     42 H42       -11.4302    5.5747   62.0621 H       1  ZINC000931749147    0.0500
     43 H43       -10.5249    5.2745   63.5652 H       1  ZINC000931749147    0.0900
     44 H44       -10.1803    5.9252   60.0083 H       1  ZINC000931749147    0.0500
     45 H45        -8.4023    5.8696   60.0774 H       1  ZINC000931749147    0.0900
     46 H46        -8.4769    3.4506   60.5544 H       1  ZINC000931749147    0.0700
     47 H47        -9.3627    3.8054   59.0504 H       1  ZINC000931749147    0.0700
     48 H48        -8.6901   -2.6007   60.6150 H       1  ZINC000931749147    0.1800
     49 H49        -6.8565   -3.7226   59.4172 H       1  ZINC000931749147    0.1500
@<TRIPOS>BOND
     1     1     2    1
     2     1    27    1
     3     1    28    1
     4     1    29    1
     5     2    25   ar
     6     2     3   ar
     7     3     4    1
     8     3    21   ar
     9     4     5   am
    10     4    30    1
    11     5     6    2
    12     5     7   am
    13     7    12    1
    14     7     8    1
    15     8     9    1
    16     8    31    1
    17     8    32    1
    18     9    10    1
    19     9    33    1
    20     9    34    1
    21    10    11    1
    22    11    12    1
    23    11    35    1
    24    11    36    1
    25    12    13    1
    26    12    14    1
    27    14    15    1
    28    14    37    1
    29    14    38    1
    30    15    20    1
    31    15    16    1
    32    15    39    1
    33    16    17    1
    34    16    40    1
    35    16    41    1
    36    17    18    1
    37    17    42    1
    38    17    43    1
    39    18    19    1
    40    19    20    1
    41    19    44    1
    42    19    45    1
    43    20    46    1
    44    20    47    1
    45    21    22   ar
    46    21    48    1
    47    22    23   ar
    48    22    49    1
    49    23    24    1
    50    23    25   ar
    51    25    26    1
@<TRIPOS>SUBSTRUCTURE
     1 ZINC000931749147        1 TEMP              0 ****  ****    0 ROOT


##########                                Name:    ZINC000163855860
##########                DOCK_Rotatable_Bonds:                   6
##########                         Heavy_Atoms:                  28
##########                    Molecular_Weight:             398.483
##########                DOCK_Rotatable_Bonds:                   6
##########                       Formal_Charge:          -0.0100004
##########                     HBond_Acceptors:                   7
##########                        HBond_Donors:                   1
##########                         Heavy_Atoms:                  28
##########                          Grid_Score:          -25.555761
##########                     Grid_vdw_energy:          -24.490437
##########                      Grid_es_energy:           -1.065325
##########           Internal_energy_repulsive:           94.211975

@<TRIPOS>MOLECULE
ZINC000163855860
 50 53 1 0 0
SMALL
USER_CHARGES


@<TRIPOS>ATOM
      1 C1        -11.9699    1.0019   58.5619 C.3     1  ZINC000163855860   -0.1300
      2 C2        -11.3063   -0.2141   59.1554 C.ar    1  ZINC000163855860   -0.0600
      3 C3        -11.8419   -1.4739   58.9386 C.ar    1  ZINC000163855860    0.1400
      4 N4        -13.0004   -1.6184   58.1670 N.am    1  ZINC000163855860   -0.6700
      5 C5        -14.0399   -2.3346   58.6395 C.2     1  ZINC000163855860    0.5100
      6 O6        -13.9711   -2.8539   59.7334 O.2     1  ZINC000163855860   -0.5100
      7 C7        -15.2874   -2.4902   57.8085 C.3     1  ZINC000163855860   -0.1300
      8 C8        -15.4683   -1.2549   56.9240 C.3     1  ZINC000163855860   -0.1100
      9 H9        -16.3987   -1.3136   56.3590 H       1  ZINC000163855860    0.1100
     10 C10       -15.4175    0.0389   57.7682 C.3     1  ZINC000163855860    0.0600
     11 O11       -14.7651    1.0134   56.9013 O.3     1  ZINC000163855860   -0.3500
     12 C12       -13.9011    0.3924   56.0856 C.2     1  ZINC000163855860    0.4800
     13 O13       -12.9745    0.9237   55.5208 O.2     1  ZINC000163855860   -0.4500
     14 C14       -14.2605   -1.0737   55.9781 C.3     1  ZINC000163855860   -0.1800
     15 C15       -11.2250   -2.5943   59.4827 C.ar    1  ZINC000163855860   -0.1100
     16 C16       -10.0801   -2.4570   60.2447 C.ar    1  ZINC000163855860   -0.1100
     17 C17        -9.5416   -1.2063   60.4704 C.ar    1  ZINC000163855860   -0.1000
     18 C18       -10.1538   -0.0749   59.9288 C.ar    1  ZINC000163855860   -0.1100
     19 C19        -9.5787    1.2660   60.1686 C.2     1  ZINC000163855860    0.5700
     20 O20        -8.7396    1.7119   59.4106 O.2     1  ZINC000163855860   -0.5300
     21 N21        -9.9849    1.9939   61.2276 N.am    1  ZINC000163855860   -0.6100
     22 C22       -10.9989    1.4734   62.1570 C.3     1  ZINC000163855860    0.1200
     23 C23       -10.3404    1.2820   63.5322 C.3     1  ZINC000163855860   -0.0600
     24 C24        -9.5178    2.5096   63.8613 C.2     1  ZINC000163855860   -0.1700
     25 C25        -9.1013    3.4252   62.9662 C.2     1  ZINC000163855860   -0.1300
     26 C26        -8.3497    4.4546   63.5241 C.2     1  ZINC000163855860   -0.1200
     27 C27        -8.1625    4.3834   64.8381 C.2     1  ZINC000163855860   -0.2100
     28 S28        -8.9579    2.9496   65.4698 S.3     1  ZINC000163855860    0.1100
     29 C29        -9.4306    3.3314   61.4808 C.3     1  ZINC000163855860    0.1700
     30 H30       -12.6393    1.4464   59.2985 H       1  ZINC000163855860    0.0700
     31 H31       -11.2089    1.7285   58.2772 H       1  ZINC000163855860    0.0900
     32 H32       -12.5414    0.7102   57.6808 H       1  ZINC000163855860    0.0700
     33 H33       -13.0555   -1.2030   57.2921 H       1  ZINC000163855860    0.4100
     34 H34       -16.1507   -2.5962   58.4655 H       1  ZINC000163855860    0.1100
     35 H35       -15.1976   -3.3766   57.1807 H       1  ZINC000163855860    0.1100
     36 H36       -14.8300   -0.1195   58.6726 H       1  ZINC000163855860    0.0800
     37 H37       -16.4252    0.3686   58.0207 H       1  ZINC000163855860    0.1200
     38 H38       -14.5399   -1.3217   54.9541 H       1  ZINC000163855860    0.1200
     39 H39       -13.4259   -1.6938   56.3053 H       1  ZINC000163855860    0.1200
     40 H40       -11.6415   -3.5755   59.3092 H       1  ZINC000163855860    0.1500
     41 H41        -9.6050   -3.3313   60.6645 H       1  ZINC000163855860    0.1300
     42 H42        -8.6468   -1.1032   61.0664 H       1  ZINC000163855860    0.1300
     43 H43       -11.8207    2.1848   62.2380 H       1  ZINC000163855860    0.0800
     44 H44       -11.3737    0.5171   61.7917 H       1  ZINC000163855860    0.1000
     45 H45        -9.6935    0.4049   63.5099 H       1  ZINC000163855860    0.0900
     46 H46       -11.1121    1.1465   64.2900 H       1  ZINC000163855860    0.0900
     47 H47        -7.9445    5.2591   62.9281 H       1  ZINC000163855860    0.1400
     48 H48        -7.6070    5.0979   65.4275 H       1  ZINC000163855860    0.1700
     49 H49        -8.5242    3.4728   60.8920 H       1  ZINC000163855860    0.1000
     50 H50       -10.1652    4.0918   61.2157 H       1  ZINC000163855860    0.0900
@<TRIPOS>BOND
     1     1     2    1
     2     1    30    1
     3     1    31    1
     4     1    32    1
     5     2    18   ar
     6     2     3   ar
     7     3     4    1
     8     3    15   ar
     9     4     5   am
    10     4    33    1
    11     5     6    2
    12     5     7    1
    13     7     8    1
    14     7    34    1
    15     7    35    1
    16     8     9    1
    17     8    14    1
    18     8    10    1
    19    10    11    1
    20    10    36    1
    21    10    37    1
    22    11    12    1
    23    12    13    2
    24    12    14    1
    25    14    38    1
    26    14    39    1
    27    15    16   ar
    28    15    40    1
    29    16    17   ar
    30    16    41    1
    31    17    18   ar
    32    17    42    1
    33    18    19    1
    34    19    20    2
    35    19    21   am
    36    21    29    1
    37    21    22    1
    38    22    23    1
    39    22    43    1
    40    22    44    1
    41    23    24    1
    42    23    45    1
    43    23    46    1
    44    24    28    1
    45    24    25    2
    46    25    26    1
    47    25    29    1
    48    26    27    2
    49    26    47    1
    50    27    28    1
    51    27    48    1
    52    29    49    1
    53    29    50    1
@<TRIPOS>SUBSTRUCTURE
     1 ZINC000163855860        1 TEMP              0 ****  ****    0 ROOT


##########                                Name:    ZINC000536173632
##########                DOCK_Rotatable_Bonds:                   7
##########                         Heavy_Atoms:                  29
##########                    Molecular_Weight:             407.389
##########                DOCK_Rotatable_Bonds:                   7
##########                       Formal_Charge:        -2.98023e-07
##########                     HBond_Acceptors:                   8
##########                        HBond_Donors:                   0
##########                         Heavy_Atoms:                  29
##########                          Grid_Score:          -25.543707
##########                     Grid_vdw_energy:          -25.075401
##########                      Grid_es_energy:           -0.468306
##########           Internal_energy_repulsive:           19.380768

@<TRIPOS>MOLECULE
ZINC000536173632
 49 51 1 0 0
SMALL
USER_CHARGES


@<TRIPOS>ATOM
      1 C1        -11.1571    2.4799   53.4894 C.3     1  ZINC000536173632    0.0400
      2 O2        -10.8418    2.8298   54.8629 O.3     1  ZINC000536173632   -0.3500
      3 C3        -11.8115    3.4310   55.5789 C.2     1  ZINC000536173632    0.5100
      4 O4        -12.8909    3.6571   55.0698 O.2     1  ZINC000536173632   -0.5000
      5 C5        -11.5622    3.8154   56.9834 C.ar    1  ZINC000536173632   -0.1300
      6 C6        -12.5566    4.4607   57.7208 C.ar    1  ZINC000536173632   -0.0600
      7 C7        -12.3172    4.8171   59.0319 C.ar    1  ZINC000536173632   -0.1300
      8 C8        -11.0948    4.5368   59.6160 C.ar    1  ZINC000536173632   -0.0700
      9 C9        -10.1047    3.8974   58.8908 C.ar    1  ZINC000536173632   -0.0800
     10 C10        -8.7762    3.5961   59.5356 C.3     1  ZINC000536173632   -0.1000
     11 C11        -8.9823    3.3112   61.0010 C.2     1  ZINC000536173632    0.5200
     12 O12        -8.6362    4.1244   61.8315 O.2     1  ZINC000536173632   -0.5200
     13 N13        -9.5511    2.1524   61.3886 N.am    1  ZINC000536173632   -0.6200
     14 C14        -9.7626    1.8518   62.8135 C.3     1  ZINC000536173632    0.0700
     15 C15        -9.1944    0.4578   63.1031 C.3     1  ZINC000536173632    0.0500
     16 O16        -9.7410   -0.4765   62.1692 O.3     1  ZINC000536173632   -0.3700
     17 C17        -9.4008   -0.2092   60.8066 C.3     1  ZINC000536173632    0.1200
     18 H18        -8.3162   -0.1901   60.6991 H       1  ZINC000536173632    0.0800
     19 C19        -9.9755   -1.2867   59.9236 C.ar    1  ZINC000536173632   -0.0900
     20 C20        -9.1330   -2.1132   59.2045 C.ar    1  ZINC000536173632   -0.0600
     21 C21        -9.6602   -3.1017   58.3943 C.ar    1  ZINC000536173632   -0.1200
     22 C22       -11.0299   -3.2637   58.3040 C.ar    1  ZINC000536173632   -0.0700
     23 C23       -11.8727   -2.4375   59.0241 C.ar    1  ZINC000536173632   -0.1800
     24 C24       -13.3661   -2.6138   58.9253 C.3     1  ZINC000536173632    0.5100
     25 F25       -13.9130   -1.5554   58.1919 F       1  ZINC000536173632   -0.1800
     26 F26       -13.6514   -3.8231   58.2825 F       1  ZINC000536173632   -0.1800
     27 F27       -13.9202   -2.6264   60.2098 F       1  ZINC000536173632   -0.1800
     28 C28       -11.3454   -1.4521   59.8373 C.ar    1  ZINC000536173632   -0.0500
     29 C29        -9.9847    1.1532   60.3992 C.3     1  ZINC000536173632    0.0900
     30 C30       -10.3329    3.5300   57.5811 C.ar    1  ZINC000536173632   -0.0400
     31 H31       -12.0018    1.7910   53.4747 H       1  ZINC000536173632    0.0600
     32 H32       -11.4144    3.3821   52.9345 H       1  ZINC000536173632    0.0600
     33 H33       -10.2920    2.0037   53.0280 H       1  ZINC000536173632    0.1000
     34 H34       -13.5111    4.6808   57.2657 H       1  ZINC000536173632    0.1400
     35 H35       -13.0857    5.3163   59.6035 H       1  ZINC000536173632    0.1400
     36 H36       -10.9124    4.8185   60.6425 H       1  ZINC000536173632    0.1300
     37 H37        -8.3285    2.7259   59.0557 H       1  ZINC000536173632    0.1100
     38 H38        -8.1143    4.4547   59.4219 H       1  ZINC000536173632    0.1100
     39 H39        -9.2477    2.5925   63.4253 H       1  ZINC000536173632    0.1000
     40 H40       -10.8292    1.8673   63.0376 H       1  ZINC000536173632    0.0800
     41 H41        -8.1092    0.4792   63.0039 H       1  ZINC000536173632    0.0600
     42 H42        -9.4623    0.1588   64.1164 H       1  ZINC000536173632    0.1100
     43 H43        -8.0628   -1.9867   59.2750 H       1  ZINC000536173632    0.1400
     44 H44        -9.0019   -3.7471   57.8318 H       1  ZINC000536173632    0.1400
     45 H45       -11.4418   -4.0354   57.6706 H       1  ZINC000536173632    0.1400
     46 H46       -12.0037   -0.8067   60.3999 H       1  ZINC000536173632    0.1400
     47 H47       -11.0729    1.0953   60.3804 H       1  ZINC000536173632    0.0800
     48 H48        -9.6143    1.4311   59.4125 H       1  ZINC000536173632    0.1100
     49 H49        -9.5595    3.0307   57.0164 H       1  ZINC000536173632    0.1400
@<TRIPOS>BOND
     1     1     2    1
     2     1    31    1
     3     1    32    1
     4     1    33    1
     5     2     3    1
     6     3     4    2
     7     3     5    1
     8     5    30   ar
     9     5     6   ar
    10     6     7   ar
    11     6    34    1
    12     7     8   ar
    13     7    35    1
    14     8     9   ar
    15     8    36    1
    16     9    10    1
    17     9    30   ar
    18    10    11    1
    19    10    37    1
    20    10    38    1
    21    11    12    2
    22    11    13   am
    23    13    29    1
    24    13    14    1
    25    14    15    1
    26    14    39    1
    27    14    40    1
    28    15    16    1
    29    15    41    1
    30    15    42    1
    31    16    17    1
    32    17    18    1
    33    17    19    1
    34    17    29    1
    35    19    28   ar
    36    19    20   ar
    37    20    21   ar
    38    20    43    1
    39    21    22   ar
    40    21    44    1
    41    22    23   ar
    42    22    45    1
    43    23    24    1
    44    23    28   ar
    45    24    25    1
    46    24    26    1
    47    24    27    1
    48    28    46    1
    49    29    47    1
    50    29    48    1
    51    30    49    1
@<TRIPOS>SUBSTRUCTURE
     1 ZINC000536173632        1 TEMP              0 ****  ****    0 ROOT


##########                                Name:    ZINC000555499135
##########                DOCK_Rotatable_Bonds:                   8
##########                         Heavy_Atoms:                  26
##########                    Molecular_Weight:             377.554
##########                DOCK_Rotatable_Bonds:                   8
##########                       Formal_Charge:           0.0399999
##########                     HBond_Acceptors:                   7
##########                        HBond_Donors:                   0
##########                         Heavy_Atoms:                  26
##########                          Grid_Score:          -25.540531
##########                     Grid_vdw_energy:          -22.780539
##########                      Grid_es_energy:           -2.759993
##########           Internal_energy_repulsive:           41.763119

@<TRIPOS>MOLECULE
ZINC000555499135
 57 59 1 0 0
SMALL
USER_CHARGES


@<TRIPOS>ATOM
      1 C1         -6.8651   -4.4096   56.6301 C.3     1  ZINC000555499135   -0.1500
      2 C2         -8.2514   -3.9548   56.1696 C.3     1  ZINC000555499135   -0.0500
      3 C3         -9.0267   -3.4317   57.3513 C.2     1  ZINC000555499135   -0.2100
      4 C4        -10.3539   -3.4730   57.5016 C.2     1  ZINC000555499135    0.0300
      5 N5        -10.7930   -2.9481   58.6278 N.2     1  ZINC000555499135   -0.4500
      6 C6         -9.9101   -2.4663   59.4359 C.2     1  ZINC000555499135    0.0400
      7 C7        -10.2156   -1.8276   60.7662 C.3     1  ZINC000555499135    0.1500
      8 N8        -10.3305   -0.3730   60.5961 N.3     1  ZINC000555499135   -0.4500
      9 C9        -10.5759   -0.0251   59.1901 C.3     1  ZINC000555499135    0.0100
     10 C10       -11.3197    0.1464   61.4160 C.2     1  ZINC000555499135    0.3500
     11 N11       -12.4918   -0.3906   61.6603 N.2     1  ZINC000555499135   -0.3100
     12 N12       -13.1564    0.3593   62.4653 N.2     1  ZINC000555499135   -0.2900
     13 C13       -12.4535    1.4105   62.7797 C.2     1  ZINC000555499135    0.2100
     14 C14       -12.8785    2.5271   63.6982 C.3     1  ZINC000555499135   -0.0300
     15 C15       -13.6912    3.5553   62.9089 C.3     1  ZINC000555499135   -0.0900
     16 C16       -12.7661    4.3130   61.9546 C.3     1  ZINC000555499135   -0.1500
     17 C17       -14.7772    2.8381   62.1043 C.3     1  ZINC000555499135   -0.1500
     18 N18       -11.2564    1.3096   62.1265 N.pl3   1  ZINC000555499135   -0.4600
     19 C19       -10.1409    2.2580   62.1729 C.3     1  ZINC000555499135    0.1100
     20 C20        -9.2206    1.9061   63.3433 C.3     1  ZINC000555499135    0.0700
     21 H21        -8.2400    2.3539   63.1821 H       1  ZINC000555499135    0.0700
     22 C22        -9.0775    0.3850   63.4407 C.3     1  ZINC000555499135   -0.1500
     23 C23        -8.2039    0.0386   64.6504 C.3     1  ZINC000555499135   -0.1200
     24 C24        -8.8308    0.6453   65.9095 C.3     1  ZINC000555499135   -0.1600
     25 C25        -8.9835    2.1564   65.7167 C.3     1  ZINC000555499135    0.0600
     26 O26        -9.7804    2.4095   64.5579 O.3     1  ZINC000555499135   -0.3700
     27 S27        -8.3426   -2.6643   58.7823 S.3     1  ZINC000555499135    0.1200
     28 H28        -6.3330   -3.5655   57.0689 H       1  ZINC000555499135    0.0600
     29 H29        -6.9702   -5.1993   57.3740 H       1  ZINC000555499135    0.0600
     30 H30        -6.3043   -4.7879   55.7755 H       1  ZINC000555499135    0.0700
     31 H31        -8.1462   -3.1651   55.4257 H       1  ZINC000555499135    0.0900
     32 H32        -8.7835   -4.7988   55.7308 H       1  ZINC000555499135    0.0800
     33 H33       -11.0127   -3.9015   56.7608 H       1  ZINC000555499135    0.1800
     34 H34       -11.1548   -2.2236   61.1522 H       1  ZINC000555499135    0.0800
     35 H35        -9.4120   -2.0488   61.4686 H       1  ZINC000555499135    0.1200
     36 H36       -11.5594   -0.3887   58.8922 H       1  ZINC000555499135    0.0500
     37 H37       -10.5376    1.0577   59.0716 H       1  ZINC000555499135    0.0800
     38 H38        -9.8128   -0.4864   58.5632 H       1  ZINC000555499135    0.0900
     39 H39       -13.4901    2.1216   64.5042 H       1  ZINC000555499135    0.1000
     40 H40       -11.9951    3.0075   64.1189 H       1  ZINC000555499135    0.1000
     41 H41       -14.1558    4.2589   63.5997 H       1  ZINC000555499135    0.0800
     42 H42       -11.9692    4.7911   62.5243 H       1  ZINC000555499135    0.0500
     43 H43       -12.3324    3.6151   61.2384 H       1  ZINC000555499135    0.0600
     44 H44       -13.3375    5.0727   61.4213 H       1  ZINC000555499135    0.0600
     45 H45       -15.4363    2.2983   62.7842 H       1  ZINC000555499135    0.0600
     46 H46       -15.3563    3.5706   61.5420 H       1  ZINC000555499135    0.0600
     47 H47       -14.3125    2.1345   61.4136 H       1  ZINC000555499135    0.0600
     48 H48        -9.5793    2.2042   61.2402 H       1  ZINC000555499135    0.1100
     49 H49       -10.5281    3.2682   62.3061 H       1  ZINC000555499135    0.1200
     50 H50       -10.0622   -0.0665   63.5613 H       1  ZINC000555499135    0.0800
     51 H51        -8.6098    0.0043   62.5328 H       1  ZINC000555499135    0.0800
     52 H52        -8.1438   -1.0443   64.7586 H       1  ZINC000555499135    0.0700
     53 H53        -7.2039    0.4481   64.5073 H       1  ZINC000555499135    0.0600
     54 H54        -9.8105    0.1990   66.0798 H       1  ZINC000555499135    0.0700
     55 H55        -8.1867    0.4508   66.7671 H       1  ZINC000555499135    0.0800
     56 H56        -9.4683    2.5873   66.5926 H       1  ZINC000555499135    0.1000
     57 H57        -7.9997    2.6074   65.5867 H       1  ZINC000555499135    0.0500
@<TRIPOS>BOND
     1     1     2    1
     2     1    28    1
     3     1    29    1
     4     1    30    1
     5     2     3    1
     6     2    31    1
     7     2    32    1
     8     3    27    1
     9     3     4    2
    10     4     5    1
    11     4    33    1
    12     5     6    2
    13     6     7    1
    14     6    27    1
    15     7     8    1
    16     7    34    1
    17     7    35    1
    18     8     9    1
    19     8    10    1
    20     9    36    1
    21     9    37    1
    22     9    38    1
    23    10    18    1
    24    10    11    2
    25    11    12    1
    26    12    13    2
    27    13    14    1
    28    13    18    1
    29    14    15    1
    30    14    39    1
    31    14    40    1
    32    15    16    1
    33    15    17    1
    34    15    41    1
    35    16    42    1
    36    16    43    1
    37    16    44    1
    38    17    45    1
    39    17    46    1
    40    17    47    1
    41    18    19    1
    42    19    20    1
    43    19    48    1
    44    19    49    1
    45    20    21    1
    46    20    26    1
    47    20    22    1
    48    22    23    1
    49    22    50    1
    50    22    51    1
    51    23    24    1
    52    23    52    1
    53    23    53    1
    54    24    25    1
    55    24    54    1
    56    24    55    1
    57    25    26    1
    58    25    56    1
    59    25    57    1
@<TRIPOS>SUBSTRUCTURE
     1 ZINC000555499135        1 TEMP              0 ****  ****    0 ROOT


##########                                Name:    ZINC000341804698
##########                DOCK_Rotatable_Bonds:                   7
##########                         Heavy_Atoms:                  24
##########                    Molecular_Weight:             342.318
##########                DOCK_Rotatable_Bonds:                   7
##########                       Formal_Charge:                0.02
##########                     HBond_Acceptors:                   8
##########                        HBond_Donors:                   0
##########                         Heavy_Atoms:                  24
##########                          Grid_Score:          -25.510609
##########                     Grid_vdw_energy:          -23.767704
##########                      Grid_es_energy:           -1.742906
##########           Internal_energy_repulsive:           29.117025

@<TRIPOS>MOLECULE
ZINC000341804698
 41 42 1 0 0
SMALL
USER_CHARGES


@<TRIPOS>ATOM
      1 C1        -15.1857    3.9001   57.6927 C.3     1  ZINC000341804698    0.0300
      2 O2        -14.9401    2.5987   58.2296 O.3     1  ZINC000341804698   -0.3900
      3 C3        -14.6136    1.6159   57.2450 C.3     1  ZINC000341804698    0.0700
      4 C4        -14.2743    0.2941   57.9368 C.3     1  ZINC000341804698    0.0400
      5 C5        -14.7470    0.3344   59.3303 C.1     1  ZINC000341804698    0.2200
      6 N6        -15.1118    0.3655   60.4056 N.1     1  ZINC000341804698   -0.4200
      7 C7        -14.9599   -0.8582   57.1992 C.3     1  ZINC000341804698   -0.1200
      8 C8        -14.6461   -2.1759   57.9148 C.3     1  ZINC000341804698    0.1100
      9 N9        -13.1881   -2.3159   58.0301 N.am    1  ZINC000341804698   -0.6000
     10 C10       -12.5672   -3.4251   57.5823 C.2     1  ZINC000341804698    0.5700
     11 O11       -13.2141   -4.3218   57.0774 O.2     1  ZINC000341804698   -0.5200
     12 C12       -11.0992   -3.5514   57.7054 C.ar    1  ZINC000341804698   -0.0900
     13 C13       -10.5004   -3.5610   58.9660 C.ar    1  ZINC000341804698   -0.1100
     14 C14        -9.1299   -3.6789   59.0773 C.ar    1  ZINC000341804698   -0.0800
     15 C15        -8.3468   -3.7877   57.9433 C.ar    1  ZINC000341804698   -0.1700
     16 C16        -8.9335   -3.7786   56.6849 C.ar    1  ZINC000341804698    0.1100
     17 O17        -8.1587   -3.8854   55.5733 O.3     1  ZINC000341804698   -0.3100
     18 C18        -6.7899   -4.2466   55.7689 C.3     1  ZINC000341804698    0.6000
     19 F19        -6.1295   -3.2193   56.4513 F       1  ZINC000341804698   -0.1600
     20 F20        -6.7213   -5.4248   56.5200 F       1  ZINC000341804698   -0.1300
     21 F21        -6.1791   -4.4491   54.5268 F       1  ZINC000341804698   -0.1600
     22 C22       -10.3081   -3.6671   56.5620 C.ar    1  ZINC000341804698   -0.0700
     23 C23       -12.4198   -1.2234   58.6424 C.3     1  ZINC000341804698    0.0900
     24 C24       -12.7585    0.0835   57.9186 C.3     1  ZINC000341804698   -0.1200
     25 H25       -14.2961    4.2514   57.1702 H       1  ZINC000341804698    0.0400
     26 H26       -16.0221    3.8534   56.9952 H       1  ZINC000341804698    0.0500
     27 H27       -15.4266    4.5879   58.5032 H       1  ZINC000341804698    0.0900
     28 H28       -15.4654    1.4702   56.5808 H       1  ZINC000341804698    0.0700
     29 H29       -13.7544    1.9537   56.6654 H       1  ZINC000341804698    0.0600
     30 H30       -16.0376   -0.6956   57.1923 H       1  ZINC000341804698    0.1000
     31 H31       -14.5919   -0.9042   56.1742 H       1  ZINC000341804698    0.0900
     32 H32       -15.0921   -2.1668   58.9094 H       1  ZINC000341804698    0.0700
     33 H33       -15.0488   -3.0092   57.3391 H       1  ZINC000341804698    0.1100
     34 H34       -11.1092   -3.4759   59.8540 H       1  ZINC000341804698    0.1400
     35 H35        -8.6677   -3.6859   60.0534 H       1  ZINC000341804698    0.1400
     36 H36        -7.2748   -3.8797   58.0364 H       1  ZINC000341804698    0.1400
     37 H37       -10.7658   -3.6602   55.5838 H       1  ZINC000341804698    0.1500
     38 H38       -12.6842   -1.1367   59.6963 H       1  ZINC000341804698    0.0800
     39 H39       -11.3535   -1.4283   58.5468 H       1  ZINC000341804698    0.1100
     40 H40       -12.4112    0.0287   56.8869 H       1  ZINC000341804698    0.1000
     41 H41       -12.2694    0.9165   58.4238 H       1  ZINC000341804698    0.0900
@<TRIPOS>BOND
     1     1     2    1
     2     1    25    1
     3     1    26    1
     4     1    27    1
     5     2     3    1
     6     3     4    1
     7     3    28    1
     8     3    29    1
     9     4    24    1
    10     4     5    1
    11     4     7    1
    12     5     6    3
    13     7     8    1
    14     7    30    1
    15     7    31    1
    16     8     9    1
    17     8    32    1
    18     8    33    1
    19     9    10   am
    20     9    23    1
    21    10    11    2
    22    10    12    1
    23    12    22   ar
    24    12    13   ar
    25    13    14   ar
    26    13    34    1
    27    14    15   ar
    28    14    35    1
    29    15    16   ar
    30    15    36    1
    31    16    17    1
    32    16    22   ar
    33    17    18    1
    34    18    19    1
    35    18    20    1
    36    18    21    1
    37    22    37    1
    38    23    24    1
    39    23    38    1
    40    23    39    1
    41    24    40    1
    42    24    41    1
@<TRIPOS>SUBSTRUCTURE
     1 ZINC000341804698        1 TEMP              0 ****  ****    0 ROOT


##########                                Name:    ZINC001016082614
##########                DOCK_Rotatable_Bonds:                   6
##########                         Heavy_Atoms:                  25
##########                    Molecular_Weight:             348.402
##########                DOCK_Rotatable_Bonds:                   6
##########                       Formal_Charge:         -0.00999998
##########                     HBond_Acceptors:                   8
##########                        HBond_Donors:                   1
##########                         Heavy_Atoms:                  25
##########                          Grid_Score:          -25.455299
##########                     Grid_vdw_energy:          -24.002384
##########                      Grid_es_energy:           -1.452916
##########           Internal_energy_repulsive:           27.593143

@<TRIPOS>MOLECULE
ZINC001016082614
 49 51 1 0 0
SMALL
USER_CHARGES


@<TRIPOS>ATOM
      1 C1         -8.8112   -2.5723   59.1789 C.3     1  ZINC001016082614   -0.1700
      2 C2        -10.1766   -2.9029   59.7851 C.3     1  ZINC001016082614    0.1000
      3 N3        -11.2356   -2.4147   58.8984 N.am    1  ZINC001016082614   -0.6100
      4 C4        -11.4824   -3.0448   57.7327 C.2     1  ZINC001016082614    0.6100
      5 O5        -10.8256   -4.0191   57.4168 O.2     1  ZINC001016082614   -0.5100
      6 C6        -12.5431   -2.5558   56.8447 C.2     1  ZINC001016082614   -0.1100
      7 C7        -13.8815   -2.5457   57.1045 C.2     1  ZINC001016082614    0.0600
      8 N8        -14.4929   -2.0195   56.0383 N.2     1  ZINC001016082614   -0.4900
      9 C9        -13.5941   -1.7090   55.1431 C.2     1  ZINC001016082614    0.2000
     10 O10       -12.3820   -2.0219   55.6116 O.3     1  ZINC001016082614   -0.1900
     11 C11       -12.0265   -1.2416   59.2786 C.3     1  ZINC001016082614    0.1600
     12 H12       -12.6314   -0.9414   58.4230 H       1  ZINC001016082614    0.0800
     13 C13       -12.9611   -1.6361   60.4181 C.3     1  ZINC001016082614   -0.1300
     14 C14       -14.1744   -0.7392   60.4030 C.3     1  ZINC001016082614   -0.1300
     15 C15       -13.9412    0.4813   61.3118 C.3     1  ZINC001016082614    0.1000
     16 N16       -12.5703    1.0142   61.1868 N.am    1  ZINC001016082614   -0.6000
     17 C17       -11.9181    1.3884   62.3052 C.2     1  ZINC001016082614    0.5000
     18 O18       -12.4585    1.2840   63.3859 O.2     1  ZINC001016082614   -0.5200
     19 C19       -10.5173    1.9365   62.2130 C.3     1  ZINC001016082614    0.1100
     20 H20        -9.9558    1.4072   61.4431 H       1  ZINC001016082614    0.1100
     21 C21        -9.8033    1.8111   63.5771 C.3     1  ZINC001016082614   -0.1200
     22 C22       -10.0891    3.1923   64.2106 C.3     1  ZINC001016082614   -0.1600
     23 C23       -10.3209    4.1033   63.0254 C.2     1  ZINC001016082614    0.5300
     24 O24       -10.3003    5.3153   63.0663 O.2     1  ZINC001016082614   -0.5300
     25 N25       -10.5528    3.3737   61.9180 N.am    1  ZINC001016082614   -0.7100
     26 C26       -11.8983    1.1508   59.9140 C.3     1  ZINC001016082614    0.1300
     27 C27       -11.1047   -0.1434   59.6073 C.3     1  ZINC001016082614   -0.1600
     28 H28        -8.0232   -2.9355   59.8386 H       1  ZINC001016082614    0.0700
     29 H29        -8.7200   -3.0531   58.2049 H       1  ZINC001016082614    0.0500
     30 H30        -8.7177   -1.4927   59.0613 H       1  ZINC001016082614    0.0600
     31 H31       -10.2701   -3.9826   59.9026 H       1  ZINC001016082614    0.0900
     32 H32       -10.2677   -2.4222   60.7590 H       1  ZINC001016082614    0.0900
     33 H33       -14.3601   -2.8985   58.0062 H       1  ZINC001016082614    0.2000
     34 H34       -13.7974   -1.2657   54.1794 H       1  ZINC001016082614    0.2600
     35 H35       -13.2735   -2.6725   60.2901 H       1  ZINC001016082614    0.0700
     36 H36       -12.4406   -1.5276   61.3696 H       1  ZINC001016082614    0.0800
     37 H37       -14.3609   -0.4006   59.3839 H       1  ZINC001016082614    0.0700
     38 H38       -15.0402   -1.2963   60.7611 H       1  ZINC001016082614    0.0800
     39 H39       -14.6509    1.2637   61.0428 H       1  ZINC001016082614    0.0700
     40 H40       -14.1144    0.1896   62.3477 H       1  ZINC001016082614    0.0800
     41 H41       -10.2400    1.0102   64.1737 H       1  ZINC001016082614    0.1000
     42 H42        -8.7325    1.6569   63.4441 H       1  ZINC001016082614    0.1000
     43 H43       -10.9797    3.1476   64.8374 H       1  ZINC001016082614    0.1100
     44 H44        -9.2303    3.5313   64.7900 H       1  ZINC001016082614    0.1100
     45 H45       -10.7213    3.7500   61.0400 H       1  ZINC001016082614    0.4200
     46 H46       -12.6365    1.3205   59.1302 H       1  ZINC001016082614    0.0800
     47 H47       -11.2121    1.9967   59.9550 H       1  ZINC001016082614    0.0900
     48 H48       -10.5093   -0.4165   60.4784 H       1  ZINC001016082614    0.0900
     49 H49       -10.4412    0.0323   58.7606 H       1  ZINC001016082614    0.0700
@<TRIPOS>BOND
     1     1     2    1
     2     1    28    1
     3     1    29    1
     4     1    30    1
     5     2     3    1
     6     2    31    1
     7     2    32    1
     8     3     4   am
     9     3    11    1
    10     4     5    2
    11     4     6    1
    12     6    10    1
    13     6     7    2
    14     7     8    1
    15     7    33    1
    16     8     9    2
    17     9    10    1
    18     9    34    1
    19    11    12    1
    20    11    27    1
    21    11    13    1
    22    13    14    1
    23    13    35    1
    24    13    36    1
    25    14    15    1
    26    14    37    1
    27    14    38    1
    28    15    16    1
    29    15    39    1
    30    15    40    1
    31    16    17   am
    32    16    26    1
    33    17    18    2
    34    17    19    1
    35    19    20    1
    36    19    25    1
    37    19    21    1
    38    21    22    1
    39    21    41    1
    40    21    42    1
    41    22    23    1
    42    22    43    1
    43    22    44    1
    44    23    24    2
    45    23    25   am
    46    25    45    1
    47    26    27    1
    48    26    46    1
    49    26    47    1
    50    27    48    1
    51    27    49    1
@<TRIPOS>SUBSTRUCTURE
     1 ZINC001016082614        1 TEMP              0 ****  ****    0 ROOT


##########                                Name:    ZINC001065334255
##########                DOCK_Rotatable_Bonds:                   7
##########                         Heavy_Atoms:                  23
##########                    Molecular_Weight:             346.448
##########                DOCK_Rotatable_Bonds:                   7
##########                       Formal_Charge:        -5.81145e-07
##########                     HBond_Acceptors:                   8
##########                        HBond_Donors:                   1
##########                         Heavy_Atoms:                  23
##########                          Grid_Score:          -25.453800
##########                     Grid_vdw_energy:          -23.314171
##########                      Grid_es_energy:           -2.139628
##########           Internal_energy_repulsive:           24.124720

@<TRIPOS>MOLECULE
ZINC001065334255
 49 50 1 0 0
SMALL
USER_CHARGES


@<TRIPOS>ATOM
      1 C1        -13.9514    1.8519   54.2805 C.3     1  ZINC001065334255   -0.1500
      2 C2        -13.5150    0.8532   55.3544 C.3     1  ZINC001065334255   -0.0800
      3 C3        -13.0873    1.6116   56.6125 C.3     1  ZINC001065334255   -0.1500
      4 C4        -14.6829   -0.0761   55.6914 C.3     1  ZINC001065334255   -0.1400
      5 C5        -14.2535   -1.0589   56.7500 C.2     1  ZINC001065334255    0.5100
      6 O6        -14.3960   -0.7871   57.9234 O.2     1  ZINC001065334255   -0.5300
      7 N7        -13.7110   -2.2399   56.3930 N.am    1  ZINC001065334255   -0.7300
      8 C8        -13.2952   -3.1960   57.4222 C.3     1  ZINC001065334255    0.1300
      9 C9        -11.9376   -2.7763   57.9893 C.3     1  ZINC001065334255    0.0700
     10 H10       -11.5968   -1.8714   57.4862 H       1  ZINC001065334255    0.0700
     11 C11       -12.0718   -2.5067   59.4924 C.3     1  ZINC001065334255    0.0800
     12 N12       -10.7262   -2.2896   60.0470 N.am    1  ZINC001065334255   -0.6100
     13 C13       -10.4566   -1.2135   60.8124 C.2     1  ZINC001065334255    0.5400
     14 O14        -9.3413   -1.0524   61.2608 O.2     1  ZINC001065334255   -0.5200
     15 C15       -11.5410   -0.2107   61.1112 C.3     1  ZINC001065334255   -0.1100
     16 H16       -12.4824   -0.7254   61.3037 H       1  ZINC001065334255    0.1200
     17 C17       -11.7031    0.7588   59.9272 C.3     1  ZINC001065334255   -0.1000
     18 C18       -12.5563    1.9588   60.3841 C.3     1  ZINC001065334255   -0.5900
     19 S19       -12.2533    2.1014   62.1823 S.o2    1  ZINC001065334255    2.3900
     20 O20       -11.5157    3.2876   62.4430 O.2     1  ZINC001065334255   -0.9300
     21 O21       -13.4628    1.8512   62.8850 O.2     1  ZINC001065334255   -0.9300
     22 C22       -11.1452    0.6494   62.3391 C.3     1  ZINC001065334255   -0.5900
     23 C23        -9.6838   -3.2823   59.7416 C.3     1  ZINC001065334255    0.0600
     24 C24        -9.6658   -3.5141   58.2264 C.3     1  ZINC001065334255    0.0500
     25 O25       -10.9883   -3.8248   57.7811 O.3     1  ZINC001065334255   -0.3700
     26 H26       -13.1195    2.5140   54.0405 H       1  ZINC001065334255    0.0600
     27 H27       -14.2561    1.3116   53.3842 H       1  ZINC001065334255    0.0500
     28 H28       -14.7896    2.4416   54.6519 H       1  ZINC001065334255    0.0600
     29 H29       -12.6769    0.2636   54.9831 H       1  ZINC001065334255    0.0800
     30 H30       -13.9255    2.2013   56.9839 H       1  ZINC001065334255    0.0500
     31 H31       -12.7765    0.9001   57.3775 H       1  ZINC001065334255    0.0700
     32 H32       -12.2554    2.2736   56.3724 H       1  ZINC001065334255    0.0500
     33 H33       -15.5214    0.5136   56.0618 H       1  ZINC001065334255    0.0900
     34 H34       -14.9869   -0.6171   54.7953 H       1  ZINC001065334255    0.0900
     35 H35       -13.5959   -2.4567   55.4545 H       1  ZINC001065334255    0.4000
     36 H36       -14.0343   -3.2121   58.2230 H       1  ZINC001065334255    0.0900
     37 H37       -13.2138   -4.1902   56.9828 H       1  ZINC001065334255    0.0800
     38 H38       -12.6828   -1.6185   59.6530 H       1  ZINC001065334255    0.1100
     39 H39       -12.5355   -3.3647   59.9792 H       1  ZINC001065334255    0.0900
     40 H40       -10.7228    1.1085   59.6032 H       1  ZINC001065334255    0.1000
     41 H41       -12.1996    0.2492   59.1016 H       1  ZINC001065334255    0.1000
     42 H42       -12.2366    2.8669   59.8731 H       1  ZINC001065334255    0.1500
     43 H43       -13.6121    1.7673   60.1921 H       1  ZINC001065334255    0.1400
     44 H44       -11.3399    0.1126   63.2677 H       1  ZINC001065334255    0.1400
     45 H45       -10.0999    0.9520   62.2778 H       1  ZINC001065334255    0.1500
     46 H46        -8.7134   -2.9076   60.0672 H       1  ZINC001065334255    0.1000
     47 H47        -9.9070   -4.2183   60.2536 H       1  ZINC001065334255    0.0900
     48 H48        -9.3160   -2.6121   57.7243 H       1  ZINC001065334255    0.0600
     49 H49        -8.9987   -4.3438   57.9929 H       1  ZINC001065334255    0.1100
@<TRIPOS>BOND
     1     1     2    1
     2     1    26    1
     3     1    27    1
     4     1    28    1
     5     2     3    1
     6     2     4    1
     7     2    29    1
     8     3    30    1
     9     3    31    1
    10     3    32    1
    11     4     5    1
    12     4    33    1
    13     4    34    1
    14     5     6    2
    15     5     7   am
    16     7     8    1
    17     7    35    1
    18     8     9    1
    19     8    36    1
    20     8    37    1
    21     9    10    1
    22     9    25    1
    23     9    11    1
    24    11    12    1
    25    11    38    1
    26    11    39    1
    27    12    13   am
    28    12    23    1
    29    13    14    2
    30    13    15    1
    31    15    16    1
    32    15    22    1
    33    15    17    1
    34    17    18    1
    35    17    40    1
    36    17    41    1
    37    18    19    1
    38    18    42    1
    39    18    43    1
    40    19    20    2
    41    19    21    2
    42    19    22    1
    43    22    44    1
    44    22    45    1
    45    23    24    1
    46    23    46    1
    47    23    47    1
    48    24    25    1
    49    24    48    1
    50    24    49    1
@<TRIPOS>SUBSTRUCTURE
     1 ZINC001065334255        1 TEMP              0 ****  ****    0 ROOT


##########                                Name:    ZINC000523878927
##########                DOCK_Rotatable_Bonds:                   8
##########                         Heavy_Atoms:                  27
##########                    Molecular_Weight:             376.474
##########                DOCK_Rotatable_Bonds:                   8
##########                       Formal_Charge:          0.00999957
##########                     HBond_Acceptors:                   7
##########                        HBond_Donors:                   3
##########                         Heavy_Atoms:                  27
##########                          Grid_Score:          -25.444921
##########                     Grid_vdw_energy:          -23.606218
##########                      Grid_es_energy:           -1.838703
##########           Internal_energy_repulsive:           15.562811

@<TRIPOS>MOLECULE
ZINC000523878927
 56 58 1 0 0
SMALL
USER_CHARGES


@<TRIPOS>ATOM
      1 C1        -14.4701    2.5784   52.5505 C.3     1  ZINC000523878927   -0.1500
      2 C2        -13.4198    1.6718   53.1953 C.3     1  ZINC000523878927   -0.0900
      3 H3        -12.6003    2.2801   53.5778 H       1  ZINC000523878927    0.0700
      4 C4        -12.8826    0.6909   52.1510 C.3     1  ZINC000523878927   -0.1200
      5 C5        -14.0330   -0.1630   51.6141 C.3     1  ZINC000523878927   -0.1200
      6 C6        -14.6703   -0.9427   52.7660 C.3     1  ZINC000523878927   -0.1100
      7 C7        -15.2074    0.0382   53.8101 C.3     1  ZINC000523878927   -0.1000
      8 H8        -15.9557    0.6840   53.3509 H       1  ZINC000523878927    0.0800
      9 C9        -15.8446   -0.7416   54.9621 C.3     1  ZINC000523878927    0.1400
     10 N10       -14.8062   -1.4798   55.6853 N.am    1  ZINC000523878927   -0.7400
     11 C11       -14.2417   -0.9448   56.7860 C.2     1  ZINC000523878927    0.7200
     12 O12       -14.5933    0.1511   57.1780 O.2     1  ZINC000523878927   -0.5800
     13 N13       -13.2876   -1.6247   57.4522 N.am    1  ZINC000523878927   -0.6400
     14 C14       -12.7690   -2.9561   57.0891 C.3     1  ZINC000523878927    0.1000
     15 C15       -11.3534   -3.0147   57.7154 C.3     1  ZINC000523878927   -0.1400
     16 C16       -11.5712   -2.2523   59.0492 C.3     1  ZINC000523878927    0.1500
     17 H17       -11.9857   -2.9150   59.8088 H       1  ZINC000523878927    0.1100
     18 N18       -10.3176   -1.6537   59.5146 N.am    1  ZINC000523878927   -0.7300
     19 C19       -10.2732   -1.0229   60.7048 C.2     1  ZINC000523878927    0.7100
     20 O20       -11.2730   -0.9523   61.3931 O.2     1  ZINC000523878927   -0.5700
     21 N21        -9.1204   -0.4708   61.1322 N.am    1  ZINC000523878927   -0.6800
     22 C22        -9.0742    0.1847   62.3692 C.ar    1  ZINC000523878927    0.1500
     23 C23        -9.9171    1.2595   62.6182 C.ar    1  ZINC000523878927   -0.1200
     24 C24        -9.8704    1.9042   63.8387 C.ar    1  ZINC000523878927   -0.1300
     25 C25        -8.9834    1.4796   64.8136 C.ar    1  ZINC000523878927    0.0800
     26 F26        -8.9389    2.1118   66.0067 F       1  ZINC000523878927   -0.1400
     27 C27        -8.1423    0.4076   64.5673 C.ar    1  ZINC000523878927   -0.1300
     28 C28        -8.1896   -0.2432   63.3500 C.ar    1  ZINC000523878927   -0.0900
     29 C29       -12.5871   -1.1587   58.6579 C.3     1  ZINC000523878927    0.1200
     30 C30       -14.0571    0.8921   54.3472 C.3     1  ZINC000523878927   -0.1100
     31 H31       -14.8528    3.2772   53.2944 H       1  ZINC000523878927    0.0500
     32 H32       -14.0162    3.1339   51.7299 H       1  ZINC000523878927    0.0500
     33 H33       -15.2896    1.9701   52.1680 H       1  ZINC000523878927    0.0600
     34 H34       -12.4287    1.2464   51.3304 H       1  ZINC000523878927    0.0600
     35 H35       -12.1344    0.0450   52.6105 H       1  ZINC000523878927    0.0600
     36 H36       -14.7813    0.4829   51.1548 H       1  ZINC000523878927    0.0700
     37 H37       -13.6503   -0.8618   50.8702 H       1  ZINC000523878927    0.0600
     38 H38       -15.4899   -1.5510   52.3834 H       1  ZINC000523878927    0.0600
     39 H39       -13.9220   -1.5886   53.2253 H       1  ZINC000523878927    0.0600
     40 H40       -16.3373   -0.0470   55.6424 H       1  ZINC000523878927    0.0700
     41 H41       -16.5784   -1.4426   54.5642 H       1  ZINC000523878927    0.0700
     42 H42       -14.5249   -2.3536   55.3719 H       1  ZINC000523878927    0.3900
     43 H43       -13.4024   -3.7374   57.5092 H       1  ZINC000523878927    0.0800
     44 H44       -12.7089   -3.0571   56.0054 H       1  ZINC000523878927    0.0800
     45 H45       -11.0500   -4.0453   57.8996 H       1  ZINC000523878927    0.1000
     46 H46       -10.6262   -2.5014   57.0863 H       1  ZINC000523878927    0.0800
     47 H47        -9.5198   -1.7111   58.9661 H       1  ZINC000523878927    0.4000
     48 H48        -8.3228   -0.5273   60.5832 H       1  ZINC000523878927    0.4100
     49 H49       -10.6086    1.5915   61.8577 H       1  ZINC000523878927    0.1400
     50 H50       -10.5258    2.7403   64.0328 H       1  ZINC000523878927    0.1400
     51 H51        -7.4512    0.0778   65.3290 H       1  ZINC000523878927    0.1400
     52 H52        -7.5337   -1.0795   63.1584 H       1  ZINC000523878927    0.1500
     53 H53       -12.0648   -0.2244   58.4514 H       1  ZINC000523878927    0.0700
     54 H54       -13.3050   -1.0138   59.4650 H       1  ZINC000523878927    0.0800
     55 H55       -13.3088    0.2461   54.8065 H       1  ZINC000523878927    0.0700
     56 H56       -14.4397    1.5908   55.0911 H       1  ZINC000523878927    0.0700
@<TRIPOS>BOND
     1     1     2    1
     2     1    31    1
     3     1    32    1
     4     1    33    1
     5     2     3    1
     6     2    30    1
     7     2     4    1
     8     4     5    1
     9     4    34    1
    10     4    35    1
    11     5     6    1
    12     5    36    1
    13     5    37    1
    14     6     7    1
    15     6    38    1
    16     6    39    1
    17     7     8    1
    18     7     9    1
    19     7    30    1
    20     9    10    1
    21     9    40    1
    22     9    41    1
    23    10    11   am
    24    10    42    1
    25    11    12    2
    26    11    13   am
    27    13    29    1
    28    13    14    1
    29    14    15    1
    30    14    43    1
    31    14    44    1
    32    15    16    1
    33    15    45    1
    34    15    46    1
    35    16    17    1
    36    16    18    1
    37    16    29    1
    38    18    19   am
    39    18    47    1
    40    19    20    2
    41    19    21   am
    42    21    22    1
    43    21    48    1
    44    22    28   ar
    45    22    23   ar
    46    23    24   ar
    47    23    49    1
    48    24    25   ar
    49    24    50    1
    50    25    26    1
    51    25    27   ar
    52    27    28   ar
    53    27    51    1
    54    28    52    1
    55    29    53    1
    56    29    54    1
    57    30    55    1
    58    30    56    1
@<TRIPOS>SUBSTRUCTURE
     1 ZINC000523878927        1 TEMP              0 ****  ****    0 ROOT


##########                                Name:    ZINC000942661662
##########                DOCK_Rotatable_Bonds:                   6
##########                         Heavy_Atoms:                  25
##########                    Molecular_Weight:             343.426
##########                DOCK_Rotatable_Bonds:                   6
##########                       Formal_Charge:           0.0399997
##########                     HBond_Acceptors:                   6
##########                        HBond_Donors:                   1
##########                         Heavy_Atoms:                  25
##########                          Grid_Score:          -25.440912
##########                     Grid_vdw_energy:          -24.003645
##########                      Grid_es_energy:           -1.437267
##########           Internal_energy_repulsive:           31.595648

@<TRIPOS>MOLECULE
ZINC000942661662
 50 52 1 0 0
SMALL
USER_CHARGES


@<TRIPOS>ATOM
      1 C1        -10.7602    4.1015   55.5567 C.3     1  ZINC000942661662   -0.1700
      2 C2         -9.5224    4.9434   55.8730 C.3     1  ZINC000942661662    0.1000
      3 N3         -8.7777    4.3231   56.9716 N.am    1  ZINC000942661662   -0.6000
      4 C4         -7.4671    4.0455   56.8250 C.2     1  ZINC000942661662    0.6000
      5 O5         -6.8488    3.5307   57.7371 O.2     1  ZINC000942661662   -0.5200
      6 C6         -6.7830    4.3658   55.5595 C.2     1  ZINC000942661662   -0.2400
      7 C7         -5.8207    5.3116   55.3586 C.2     1  ZINC000942661662    0.0700
      8 C8         -5.2567    6.2324   56.4098 C.3     1  ZINC000942661662   -0.0900
      9 O9         -5.4632    5.2828   54.0712 O.3     1  ZINC000942661662   -0.1700
     10 C10        -6.1555    4.3474   53.4026 C.2     1  ZINC000942661662   -0.0300
     11 C11        -6.9906    3.7284   54.2511 C.2     1  ZINC000942661662   -0.1900
     12 C12        -9.4577    4.0048   58.2296 C.3     1  ZINC000942661662    0.1400
     13 H13       -10.5148    4.2654   58.1768 H       1  ZINC000942661662    0.1100
     14 C14        -8.7700    4.7111   59.4278 C.3     1  ZINC000942661662   -0.1400
     15 C15        -9.1151    3.7897   60.6167 C.3     1  ZINC000942661662    0.1000
     16 N16        -9.4289    2.4638   60.0644 N.am    1  ZINC000942661662   -0.6200
     17 C17        -9.8006    1.3831   60.7791 C.2     1  ZINC000942661662    0.6100
     18 O18        -9.9010    1.4593   61.9894 O.2     1  ZINC000942661662   -0.5200
     19 C19       -10.0841    0.1155   60.0980 C.2     1  ZINC000942661662   -0.0600
     20 C20       -11.3112   -0.2992   59.6257 C.2     1  ZINC000942661662   -0.0700
     21 C21       -12.6083    0.4629   59.7125 C.3     1  ZINC000942661662   -0.0900
     22 C22       -11.1252   -1.5602   59.0504 C.2     1  ZINC000942661662   -0.2100
     23 C23        -9.8169   -1.8865   59.1786 C.2     1  ZINC000942661662    0.0500
     24 C24        -9.1805   -3.1636   58.6936 C.3     1  ZINC000942661662   -0.0900
     25 N25        -9.1722   -0.8743   59.8085 N.pl3   1  ZINC000942661662   -0.5400
     26 C26        -9.2716    2.5120   58.5989 C.3     1  ZINC000942661662    0.0900
     27 H27       -11.3143    4.5630   54.7393 H       1  ZINC000942661662    0.0700
     28 H28       -10.4519    3.0975   55.2654 H       1  ZINC000942661662    0.0600
     29 H29       -11.3962    4.0444   56.4401 H       1  ZINC000942661662    0.0600
     30 H30        -8.8864    5.0005   54.9896 H       1  ZINC000942661662    0.0900
     31 H31        -9.8306    5.9475   56.1643 H       1  ZINC000942661662    0.0800
     32 H32        -4.3940    5.7610   56.8807 H       1  ZINC000942661662    0.0900
     33 H33        -4.9502    7.1696   55.9453 H       1  ZINC000942661662    0.0900
     34 H34        -6.0179    6.4325   57.1639 H       1  ZINC000942661662    0.1000
     35 H35        -6.0531    4.1249   52.3507 H       1  ZINC000942661662    0.2100
     36 H36        -7.6802    2.9303   54.0185 H       1  ZINC000942661662    0.1600
     37 H37        -7.6914    4.7609   59.2788 H       1  ZINC000942661662    0.1000
     38 H38        -9.1858    5.7074   59.5786 H       1  ZINC000942661662    0.0900
     39 H39        -8.2612    3.7181   61.2902 H       1  ZINC000942661662    0.0700
     40 H40        -9.9798    4.1826   61.1514 H       1  ZINC000942661662    0.0700
     41 H41       -12.7218    1.0890   58.8275 H       1  ZINC000942661662    0.0700
     42 H42       -13.4396   -0.2398   59.7694 H       1  ZINC000942661662    0.0600
     43 H43       -12.6017    1.0910   60.6033 H       1  ZINC000942661662    0.0800
     44 H44       -11.8893   -2.1664   58.5866 H       1  ZINC000942661662    0.1400
     45 H45        -8.8283   -3.0284   57.6710 H       1  ZINC000942661662    0.0800
     46 H46        -8.3384   -3.4172   59.3375 H       1  ZINC000942661662    0.0700
     47 H47        -9.9146   -3.9688   58.7216 H       1  ZINC000942661662    0.0900
     48 H48        -8.2269   -0.8533   60.0246 H       1  ZINC000942661662    0.4100
     49 H49       -10.0348    1.9024   58.1152 H       1  ZINC000942661662    0.0800
     50 H50        -8.2762    2.1723   58.3129 H       1  ZINC000942661662    0.1000
@<TRIPOS>BOND
     1     1     2    1
     2     1    27    1
     3     1    28    1
     4     1    29    1
     5     2     3    1
     6     2    30    1
     7     2    31    1
     8     3     4   am
     9     3    12    1
    10     4     5    2
    11     4     6    1
    12     6    11    1
    13     6     7    2
    14     7     8    1
    15     7     9    1
    16     8    32    1
    17     8    33    1
    18     8    34    1
    19     9    10    1
    20    10    11    2
    21    10    35    1
    22    11    36    1
    23    12    13    1
    24    12    26    1
    25    12    14    1
    26    14    15    1
    27    14    37    1
    28    14    38    1
    29    15    16    1
    30    15    39    1
    31    15    40    1
    32    16    17   am
    33    16    26    1
    34    17    18    2
    35    17    19    1
    36    19    25    1
    37    19    20    2
    38    20    21    1
    39    20    22    1
    40    21    41    1
    41    21    42    1
    42    21    43    1
    43    22    23    2
    44    22    44    1
    45    23    24    1
    46    23    25    1
    47    24    45    1
    48    24    46    1
    49    24    47    1
    50    25    48    1
    51    26    49    1
    52    26    50    1
@<TRIPOS>SUBSTRUCTURE
     1 ZINC000942661662        1 TEMP              0 ****  ****    0 ROOT


##########                                Name:    ZINC001173835973
##########                DOCK_Rotatable_Bonds:                   4
##########                         Heavy_Atoms:                  26
##########                    Molecular_Weight:             343.388
##########                DOCK_Rotatable_Bonds:                   4
##########                       Formal_Charge:           -0.010001
##########                     HBond_Acceptors:                   6
##########                        HBond_Donors:                   4
##########                         Heavy_Atoms:                  26
##########                          Grid_Score:          -25.393543
##########                     Grid_vdw_energy:          -27.129414
##########                      Grid_es_energy:            1.735870
##########           Internal_energy_repulsive:          160.977524

@<TRIPOS>MOLECULE
ZINC001173835973
 43 46 1 0 0
SMALL
USER_CHARGES


@<TRIPOS>ATOM
      1 C1        -11.8386    3.4215   56.3435 C.3     1  ZINC001173835973   -0.1700
      2 C2        -12.3335    2.0289   56.6383 C.2     1  ZINC001173835973    0.5100
      3 O3        -12.0183    1.4797   57.6728 O.2     1  ZINC001173835973   -0.5200
      4 N4        -13.1263    1.3938   55.7526 N.am    1  ZINC001173835973   -0.6800
      5 C5        -13.5857    0.1008   56.0263 C.ar    1  ZINC001173835973    0.1800
      6 C6        -14.4029   -0.5543   55.1138 C.ar    1  ZINC001173835973   -0.1900
      7 C7        -14.8573   -1.8315   55.3830 C.ar    1  ZINC001173835973   -0.0600
      8 C8        -14.5004   -2.4611   56.5593 C.ar    1  ZINC001173835973   -0.1900
      9 C9        -13.6828   -1.8111   57.4768 C.ar    1  ZINC001173835973    0.2200
     10 N10       -13.3224   -2.4480   58.6659 N.pl3   1  ZINC001173835973   -0.6900
     11 C11       -12.2837   -1.9317   59.4494 C.ar    1  ZINC001173835973    0.0400
     12 C12       -12.5659   -1.0536   60.4540 C.ar    1  ZINC001173835973    0.2400
     13 N13       -13.8919   -0.6755   60.6935 N.pl3   1  ZINC001173835973   -0.8600
     14 C14       -11.4963   -0.5057   61.2809 C.ar    1  ZINC001173835973   -0.1100
     15 C15       -11.7808    0.3986   62.3171 C.ar    1  ZINC001173835973   -0.0600
     16 C16       -10.7381    0.8803   63.0613 C.ar    1  ZINC001173835973   -0.1700
     17 C17        -9.4404    0.4704   62.7793 C.ar    1  ZINC001173835973    0.1200
     18 N18        -9.1827   -0.3758   61.8082 N.ar    1  ZINC001173835973   -0.4400
     19 C19       -10.1539   -0.8792   61.0499 C.ar    1  ZINC001173835973    0.1900
     20 C20        -9.8501   -1.8242   59.9689 C.ar    1  ZINC001173835973    0.1300
     21 N21        -8.5966   -2.1984   59.7230 N.ar    1  ZINC001173835973   -0.4400
     22 C22        -8.3104   -3.0434   58.7588 C.ar    1  ZINC001173835973    0.1000
     23 C23        -9.3013   -3.5866   57.9501 C.ar    1  ZINC001173835973   -0.1500
     24 C24       -10.6103   -3.2412   58.1526 C.ar    1  ZINC001173835973   -0.0700
     25 C25       -10.9079   -2.3417   59.1890 C.ar    1  ZINC001173835973   -0.0400
     26 C26       -13.2207   -0.5304   57.2068 C.ar    1  ZINC001173835973   -0.1900
     27 H27       -11.2161    3.7681   57.1684 H       1  ZINC001173835973    0.1000
     28 H28       -11.2521    3.4118   55.4249 H       1  ZINC001173835973    0.0900
     29 H29       -12.6898    4.0918   56.2241 H       1  ZINC001173835973    0.0900
     30 H30       -13.3784    1.8331   54.9253 H       1  ZINC001173835973    0.4100
     31 H31       -14.6838   -0.0649   54.1929 H       1  ZINC001173835973    0.1200
     32 H32       -15.4931   -2.3381   54.6720 H       1  ZINC001173835973    0.1200
     33 H33       -14.8572   -3.4591   56.7667 H       1  ZINC001173835973    0.1200
     34 H34       -13.7918   -3.2482   58.9492 H       1  ZINC001173835973    0.4000
     35 H35       -14.6131   -1.0977   60.2012 H       1  ZINC001173835973    0.4100
     36 H36       -14.0897    0.0087   61.3521 H       1  ZINC001173835973    0.4000
     37 H37       -12.7959    0.7059   62.5212 H       1  ZINC001173835973    0.1400
     38 H38       -10.9231    1.5775   63.8652 H       1  ZINC001173835973    0.1400
     39 H39        -8.6247    0.8569   63.3723 H       1  ZINC001173835973    0.1700
     40 H40        -7.2806   -3.3222   58.5904 H       1  ZINC001173835973    0.1600
     41 H41        -9.0395   -4.2790   57.1638 H       1  ZINC001173835973    0.1400
     42 H42       -11.3941   -3.6528   57.5340 H       1  ZINC001173835973    0.1400
     43 H43       -12.5852   -0.0233   57.9175 H       1  ZINC001173835973    0.1400
@<TRIPOS>BOND
     1     1     2    1
     2     1    27    1
     3     1    28    1
     4     1    29    1
     5     2     3    2
     6     2     4   am
     7     4     5    1
     8     4    30    1
     9     5    26   ar
    10     5     6   ar
    11     6     7   ar
    12     6    31    1
    13     7     8   ar
    14     7    32    1
    15     8     9   ar
    16     8    33    1
    17     9    10    1
    18     9    26   ar
    19    10    11    1
    20    10    34    1
    21    11    25   ar
    22    11    12   ar
    23    12    13    1
    24    12    14   ar
    25    13    35    1
    26    13    36    1
    27    14    19   ar
    28    14    15   ar
    29    15    16   ar
    30    15    37    1
    31    16    17   ar
    32    16    38    1
    33    17    18   ar
    34    17    39    1
    35    18    19   ar
    36    19    20   ar
    37    20    25   ar
    38    20    21   ar
    39    21    22   ar
    40    22    23   ar
    41    22    40    1
    42    23    24   ar
    43    23    41    1
    44    24    25   ar
    45    24    42    1
    46    26    43    1
@<TRIPOS>SUBSTRUCTURE
     1 ZINC001173835973        1 TEMP              0 ****  ****    0 ROOT


##########                                Name:    ZINC000484424341
##########                DOCK_Rotatable_Bonds:                   7
##########                         Heavy_Atoms:                  26
##########                    Molecular_Weight:             359.425
##########                DOCK_Rotatable_Bonds:                   7
##########                       Formal_Charge:          -0.0100009
##########                     HBond_Acceptors:                   7
##########                        HBond_Donors:                   1
##########                         Heavy_Atoms:                  26
##########                          Grid_Score:          -25.375114
##########                     Grid_vdw_energy:          -20.594910
##########                      Grid_es_energy:           -4.780206
##########           Internal_energy_repulsive:           30.105438

@<TRIPOS>MOLECULE
ZINC000484424341
 51 53 1 0 0
SMALL
USER_CHARGES


@<TRIPOS>ATOM
      1 C1        -11.0098    4.5609   65.5282 C.3     1  ZINC000484424341    0.0300
      2 O2        -10.2527    4.9235   64.3718 O.3     1  ZINC000484424341   -0.3800
      3 C3         -8.9044    4.4503   64.3878 C.3     1  ZINC000484424341    0.1300
      4 H4         -8.3966    4.8303   65.2743 H       1  ZINC000484424341    0.0700
      5 C5         -8.1771    4.9401   63.1341 C.3     1  ZINC000484424341   -0.1700
      6 C6         -8.9012    2.9436   64.4141 C.ar    1  ZINC000484424341   -0.0700
      7 C7         -8.0667    2.2699   65.2868 C.ar    1  ZINC000484424341   -0.1000
      8 C8         -8.0606    0.8870   65.3143 C.ar    1  ZINC000484424341   -0.1000
      9 C9         -8.8884    0.1745   64.4697 C.ar    1  ZINC000484424341   -0.1100
     10 C10        -9.7284    0.8482   63.5915 C.ar    1  ZINC000484424341    0.1400
     11 N11       -10.5678    0.1304   62.7358 N.am    1  ZINC000484424341   -0.6400
     12 C12       -11.8649    0.4768   62.6172 C.2     1  ZINC000484424341    0.5100
     13 O13       -12.3038    1.4124   63.2536 O.2     1  ZINC000484424341   -0.4900
     14 C14       -12.7621   -0.2906   61.7024 C.2     1  ZINC000484424341    0.5200
     15 O15       -13.9666   -0.2194   61.8332 O.2     1  ZINC000484424341   -0.5200
     16 N16       -12.2342   -1.0622   60.7317 N.am    1  ZINC000484424341   -0.5800
     17 C17       -12.9974   -1.8667   59.7664 C.3     1  ZINC000484424341    0.1100
     18 C18       -11.9771   -2.5553   58.8356 C.3     1  ZINC000484424341   -0.1500
     19 C19       -10.7205   -1.6553   58.9712 C.3     1  ZINC000484424341    0.1500
     20 H20       -10.7907   -0.7853   58.3181 H       1  ZINC000484424341    0.1100
     21 N21        -9.4982   -2.4156   58.6987 N.am    1  ZINC000484424341   -0.6100
     22 C22        -8.2446   -2.2642   59.4468 C.3     1  ZINC000484424341    0.1000
     23 C23        -7.4145   -3.5251   59.1195 C.3     1  ZINC000484424341   -0.1300
     24 C24        -7.9876   -3.9311   57.7419 C.3     1  ZINC000484424341   -0.1600
     25 C25        -9.3824   -3.3455   57.7350 C.2     1  ZINC000484424341    0.5200
     26 O26       -10.2655   -3.6635   56.9669 O.2     1  ZINC000484424341   -0.5200
     27 C27       -10.7959   -1.2342   60.4577 C.3     1  ZINC000484424341    0.0900
     28 C28        -9.7361    2.2371   63.5705 C.ar    1  ZINC000484424341   -0.1300
     29 H29       -10.5345    4.9741   66.4179 H       1  ZINC000484424341    0.0400
     30 H30       -12.0213    4.9574   65.4393 H       1  ZINC000484424341    0.0900
     31 H31       -11.0512    3.4747   65.6095 H       1  ZINC000484424341    0.0400
     32 H32        -8.6849    4.5601   62.2476 H       1  ZINC000484424341    0.0700
     33 H33        -8.1794    6.0299   63.1151 H       1  ZINC000484424341    0.0600
     34 H34        -7.1486    4.5791   63.1463 H       1  ZINC000484424341    0.0700
     35 H35        -7.4178    2.8247   65.9482 H       1  ZINC000484424341    0.1300
     36 H36        -7.4071    0.3640   65.9969 H       1  ZINC000484424341    0.1300
     37 H37        -8.8829   -0.9053   64.4914 H       1  ZINC000484424341    0.1300
     38 H38       -10.2170   -0.6174   62.2270 H       1  ZINC000484424341    0.4200
     39 H39       -13.5850   -2.6186   60.2931 H       1  ZINC000484424341    0.0800
     40 H40       -13.6544   -1.2213   59.1833 H       1  ZINC000484424341    0.0800
     41 H41       -11.7648   -3.5681   59.1782 H       1  ZINC000484424341    0.0900
     42 H42       -12.3371   -2.5624   57.8068 H       1  ZINC000484424341    0.0900
     43 H43        -7.7158   -1.3690   59.1196 H       1  ZINC000484424341    0.0800
     44 H44        -8.4476   -2.2134   60.5166 H       1  ZINC000484424341    0.0800
     45 H45        -6.3537   -3.2855   59.0454 H       1  ZINC000484424341    0.0900
     46 H46        -7.5854   -4.3075   59.8590 H       1  ZINC000484424341    0.0800
     47 H47        -7.3869   -3.5052   56.9383 H       1  ZINC000484424341    0.1100
     48 H48        -8.0320   -5.0164   57.6521 H       1  ZINC000484424341    0.1000
     49 H49       -10.2616   -0.2971   60.6142 H       1  ZINC000484424341    0.0900
     50 H50       -10.3847   -2.0171   61.0951 H       1  ZINC000484424341    0.0900
     51 H51       -10.3880    2.7640   62.8894 H       1  ZINC000484424341    0.1300
@<TRIPOS>BOND
     1     1     2    1
     2     1    29    1
     3     1    30    1
     4     1    31    1
     5     2     3    1
     6     3     4    1
     7     3     5    1
     8     3     6    1
     9     5    32    1
    10     5    33    1
    11     5    34    1
    12     6    28   ar
    13     6     7   ar
    14     7     8   ar
    15     7    35    1
    16     8     9   ar
    17     8    36    1
    18     9    10   ar
    19     9    37    1
    20    10    11    1
    21    10    28   ar
    22    11    12   am
    23    11    38    1
    24    12    13    2
    25    12    14    1
    26    14    15    2
    27    14    16   am
    28    16    27    1
    29    16    17    1
    30    17    18    1
    31    17    39    1
    32    17    40    1
    33    18    19    1
    34    18    41    1
    35    18    42    1
    36    19    20    1
    37    19    21    1
    38    19    27    1
    39    21    25   am
    40    21    22    1
    41    22    23    1
    42    22    43    1
    43    22    44    1
    44    23    24    1
    45    23    45    1
    46    23    46    1
    47    24    25    1
    48    24    47    1
    49    24    48    1
    50    25    26    2
    51    27    49    1
    52    27    50    1
    53    28    51    1
@<TRIPOS>SUBSTRUCTURE
     1 ZINC000484424341        1 TEMP              0 ****  ****    0 ROOT


##########                                Name:    ZINC000466160459
##########                DOCK_Rotatable_Bonds:                   9
##########                         Heavy_Atoms:                  30
##########                    Molecular_Weight:             420.512
##########                DOCK_Rotatable_Bonds:                   9
##########                       Formal_Charge:          -0.0300007
##########                     HBond_Acceptors:                  10
##########                        HBond_Donors:                   2
##########                         Heavy_Atoms:                  30
##########                          Grid_Score:          -25.306690
##########                     Grid_vdw_energy:          -25.836189
##########                      Grid_es_energy:            0.529499
##########           Internal_energy_repulsive:          188.149841

@<TRIPOS>MOLECULE
ZINC000466160459
 62 64 1 0 0
SMALL
USER_CHARGES


@<TRIPOS>ATOM
      1 C1        -11.4330   -0.8166   52.2053 C.3     1  ZINC000466160459    0.0300
      2 O2        -12.2944    0.0233   51.4342 O.3     1  ZINC000466160459   -0.3900
      3 C3        -12.3450    1.3773   51.8883 C.3     1  ZINC000466160459    0.0500
      4 C4        -12.8531    1.4127   53.3311 C.3     1  ZINC000466160459    0.1200
      5 N5        -12.9046    2.8007   53.7967 N.am    1  ZINC000466160459   -0.7300
      6 C6        -12.6728    3.0856   55.0934 C.2     1  ZINC000466160459    0.5200
      7 O7        -12.4201    2.1929   55.8746 O.2     1  ZINC000466160459   -0.5200
      8 C8        -12.7276    4.5133   55.5728 C.3     1  ZINC000466160459   -0.1300
      9 H9        -13.4231    5.0788   54.9526 H       1  ZINC000466160459    0.1100
     10 C10       -11.3338    5.1380   55.4775 C.3     1  ZINC000466160459   -0.1000
     11 C11       -10.3496    4.3248   56.3213 C.3     1  ZINC000466160459   -0.1500
     12 C12       -10.7937    4.3549   57.7872 C.3     1  ZINC000466160459    0.1600
     13 H13       -10.7247    5.3736   58.1689 H       1  ZINC000466160459    0.0700
     14 C14        -9.8938    3.4350   58.6146 C.3     1  ZINC000466160459   -0.1400
     15 N15       -12.1854    3.8913   57.8693 N.am    1  ZINC000466160459   -0.6200
     16 C16       -12.5262    2.8852   58.6988 C.2     1  ZINC000466160459    0.7100
     17 O17       -13.6814    2.5106   58.7576 O.2     1  ZINC000466160459   -0.5500
     18 N18       -11.5865    2.2944   59.4632 N.am    1  ZINC000466160459   -0.7300
     19 C19       -11.9569    1.2008   60.3649 C.3     1  ZINC000466160459    0.1600
     20 H20       -13.0408    1.0860   60.3685 H       1  ZINC000466160459    0.1300
     21 C21       -11.4751    1.5244   61.7813 C.3     1  ZINC000466160459   -0.1400
     22 C22        -9.9464    1.4076   61.8118 C.3     1  ZINC000466160459   -0.1400
     23 C23        -9.5634   -0.0599   61.6164 C.3     1  ZINC000466160459    0.1100
     24 N24       -10.2393   -0.6124   60.4492 N.am    1  ZINC000466160459   -0.5200
     25 C25        -9.7177   -1.7825   59.8808 C.2     1  ZINC000466160459    0.2800
     26 N26        -8.5448   -1.9032   59.3050 N.2     1  ZINC000466160459   -0.2600
     27 N27        -8.4058   -3.2274   58.8702 N.pl3   1  ZINC000466160459   -0.3800
     28 C28        -7.2434   -3.7881   58.1768 C.3     1  ZINC000466160459    0.1000
     29 C29        -9.5298   -3.8968   59.2023 C.2     1  ZINC000466160459    0.0700
     30 C30       -10.3563   -3.0320   59.8332 C.2     1  ZINC000466160459   -0.2900
     31 C31       -11.3216   -0.0744   59.8898 C.2     1  ZINC000466160459    0.4900
     32 O32       -11.8235   -0.6455   58.9447 O.2     1  ZINC000466160459   -0.4700
     33 C33       -13.1995    4.5455   57.0299 C.3     1  ZINC000466160459    0.1200
     34 H34       -11.4499   -1.8271   51.7970 H       1  ZINC000466160459    0.0900
     35 H35       -10.4159   -0.4264   52.1673 H       1  ZINC000466160459    0.0400
     36 H36       -11.7760   -0.8368   53.2397 H       1  ZINC000466160459    0.0400
     37 H37       -11.3469    1.8130   51.8438 H       1  ZINC000466160459    0.0600
     38 H38       -13.0198    1.9491   51.2514 H       1  ZINC000466160459    0.0700
     39 H39       -13.8514    0.9773   53.3755 H       1  ZINC000466160459    0.0800
     40 H40       -12.1785    0.8406   53.9681 H       1  ZINC000466160459    0.0800
     41 H41       -13.1056    3.5148   53.1717 H       1  ZINC000466160459    0.4000
     42 H42       -11.0065    5.1386   54.4377 H       1  ZINC000466160459    0.0700
     43 H43       -11.3691    6.1627   55.8474 H       1  ZINC000466160459    0.0700
     44 H44       -10.3323    3.2940   55.9675 H       1  ZINC000466160459    0.1000
     45 H45        -9.3526    4.7566   56.2342 H       1  ZINC000466160459    0.0700
     46 H46        -8.8512    3.7148   58.4637 H       1  ZINC000466160459    0.0400
     47 H47       -10.1470    3.5328   59.6703 H       1  ZINC000466160459    0.0800
     48 H48       -10.0421    2.4021   58.2995 H       1  ZINC000466160459    0.0600
     49 H49       -10.6648    2.5932   59.4162 H       1  ZINC000466160459    0.3900
     50 H50       -11.7710    2.5393   62.0467 H       1  ZINC000466160459    0.0900
     51 H51       -11.9113    0.8180   62.4876 H       1  ZINC000466160459    0.0900
     52 H52        -9.5177    2.0075   61.0090 H       1  ZINC000466160459    0.0700
     53 H53        -9.5720    1.7583   62.7735 H       1  ZINC000466160459    0.1000
     54 H54        -8.4850   -0.1354   61.4775 H       1  ZINC000466160459    0.0900
     55 H55        -9.8502   -0.6280   62.5013 H       1  ZINC000466160459    0.0800
     56 H56        -6.5374   -4.1798   58.9091 H       1  ZINC000466160459    0.0700
     57 H57        -7.5672   -4.5934   57.5174 H       1  ZINC000466160459    0.0900
     58 H58        -6.7607   -3.0082   57.5878 H       1  ZINC000466160459    0.0900
     59 H59        -9.7315   -4.9389   59.0034 H       1  ZINC000466160459    0.1800
     60 H60       -11.3369   -3.2602   60.2243 H       1  ZINC000466160459    0.1500
     61 H61       -13.3268    5.5797   57.3500 H       1  ZINC000466160459    0.0900
     62 H62       -14.1467    4.0138   57.1198 H       1  ZINC000466160459    0.0700
@<TRIPOS>BOND
     1     1     2    1
     2     1    34    1
     3     1    35    1
     4     1    36    1
     5     2     3    1
     6     3     4    1
     7     3    37    1
     8     3    38    1
     9     4     5    1
    10     4    39    1
    11     4    40    1
    12     5     6   am
    13     5    41    1
    14     6     7    2
    15     6     8    1
    16     8     9    1
    17     8    33    1
    18     8    10    1
    19    10    11    1
    20    10    42    1
    21    10    43    1
    22    11    12    1
    23    11    44    1
    24    11    45    1
    25    12    13    1
    26    12    14    1
    27    12    15    1
    28    14    46    1
    29    14    47    1
    30    14    48    1
    31    15    16   am
    32    15    33    1
    33    16    17    2
    34    16    18   am
    35    18    19    1
    36    18    49    1
    37    19    20    1
    38    19    31    1
    39    19    21    1
    40    21    22    1
    41    21    50    1
    42    21    51    1
    43    22    23    1
    44    22    52    1
    45    22    53    1
    46    23    24    1
    47    23    54    1
    48    23    55    1
    49    24    25    1
    50    24    31   am
    51    25    30    1
    52    25    26    2
    53    26    27    1
    54    27    28    1
    55    27    29    1
    56    28    56    1
    57    28    57    1
    58    28    58    1
    59    29    30    2
    60    29    59    1
    61    30    60    1
    62    31    32    2
    63    33    61    1
    64    33    62    1
@<TRIPOS>SUBSTRUCTURE
     1 ZINC000466160459        1 TEMP              0 ****  ****    0 ROOT


##########                                Name:    ZINC000426607143
##########                DOCK_Rotatable_Bonds:                   3
##########                         Heavy_Atoms:                  25
##########                    Molecular_Weight:             419.302
##########                DOCK_Rotatable_Bonds:                   3
##########                       Formal_Charge:         1.49012e-07
##########                     HBond_Acceptors:                   7
##########                        HBond_Donors:                   0
##########                         Heavy_Atoms:                  25
##########                          Grid_Score:          -25.306410
##########                     Grid_vdw_energy:          -20.274342
##########                      Grid_es_energy:           -5.032069
##########           Internal_energy_repulsive:           20.372700

@<TRIPOS>MOLECULE
ZINC000426607143
 40 43 1 0 0
SMALL
USER_CHARGES


@<TRIPOS>ATOM
      1 C1        -13.6587   -1.9859   58.1670 C.3     1  ZINC000426607143   -0.0900
      2 C2        -12.2423   -2.4992   58.1264 C.2     1  ZINC000426607143    0.1600
      3 N3        -11.8794   -3.4275   57.2951 N.2     1  ZINC000426607143   -0.4600
      4 S4        -10.2311   -3.7279   57.5541 S.3     1  ZINC000426607143    0.2900
      5 C5        -10.0362   -2.5715   58.8127 C.2     1  ZINC000426607143   -0.1300
      6 C6         -8.7743   -2.2549   59.5734 C.3     1  ZINC000426607143   -0.0800
      7 C7        -11.2624   -1.9975   58.9726 C.2     1  ZINC000426607143   -0.1200
      8 C8        -11.5293   -0.9347   59.9720 C.2     1  ZINC000426607143    0.2500
      9 N9        -12.5468   -0.1123   59.9785 N.2     1  ZINC000426607143   -0.3700
     10 O10       -12.4720    0.6354   60.9305 O.3     1  ZINC000426607143    0.0900
     11 C11       -11.3755    0.3606   61.6439 C.2     1  ZINC000426607143    0.2000
     12 C12       -10.9245    1.0631   62.8984 C.3     1  ZINC000426607143   -0.0300
     13 H13       -10.5245    0.3449   63.6140 H       1  ZINC000426607143    0.1600
     14 C14        -9.8671    2.1409   62.5648 C.3     1  ZINC000426607143   -0.1200
     15 C15       -10.2282    3.2580   63.5689 C.3     1  ZINC000426607143    0.1000
     16 N16       -11.6521    3.0682   63.8703 N.am    1  ZINC000426607143   -0.5800
     17 C17       -12.4710    4.0391   64.4582 C.ar    1  ZINC000426607143    0.1700
     18 C18       -12.3922    4.2823   65.8225 C.ar    1  ZINC000426607143   -0.1000
     19 C19       -13.2019    5.2414   66.3999 C.ar    1  ZINC000426607143   -0.1000
     20 C20       -14.0908    5.9585   65.6207 C.ar    1  ZINC000426607143   -0.1000
     21 C21       -14.1723    5.7191   64.2611 C.ar    1  ZINC000426607143   -0.0900
     22 C22       -13.3610    4.7658   63.6763 C.ar    1  ZINC000426607143   -0.0800
     23 Br23      -13.4730    4.4388   61.8172 Br      1  ZINC000426607143   -0.0400
     24 C24       -12.0694    1.8395   63.5111 C.2     1  ZINC000426607143    0.5300
     25 O25       -13.1982    1.4196   63.6547 O.2     1  ZINC000426607143   -0.4900
     26 N26       -10.7694   -0.6376   61.0507 N.2     1  ZINC000426607143   -0.4600
     27 H27       -13.7614   -1.1482   57.4772 H       1  ZINC000426607143    0.0900
     28 H28       -14.3426   -2.7829   57.8752 H       1  ZINC000426607143    0.0800
     29 H29       -13.8964   -1.6551   59.1781 H       1  ZINC000426607143    0.1100
     30 H30        -7.9620   -2.8826   59.2070 H       1  ZINC000426607143    0.0800
     31 H31        -8.5165   -1.2058   59.4287 H       1  ZINC000426607143    0.0900
     32 H32        -8.9320   -2.4474   60.6346 H       1  ZINC000426607143    0.0900
     33 H33        -8.8591    1.7668   62.7434 H       1  ZINC000426607143    0.1100
     34 H34        -9.9761    2.4895   61.5378 H       1  ZINC000426607143    0.1000
     35 H35        -9.6337    3.1557   64.4767 H       1  ZINC000426607143    0.0900
     36 H36       -10.0652    4.2371   63.1186 H       1  ZINC000426607143    0.0900
     37 H37       -11.6987    3.7222   66.4323 H       1  ZINC000426607143    0.1400
     38 H38       -13.1408    5.4308   67.4614 H       1  ZINC000426607143    0.1400
     39 H39       -14.7230    6.7070   66.0750 H       1  ZINC000426607143    0.1400
     40 H40       -14.8677    6.2810   63.6552 H       1  ZINC000426607143    0.1400
@<TRIPOS>BOND
     1     1     2    1
     2     1    27    1
     3     1    28    1
     4     1    29    1
     5     2     7    1
     6     2     3    2
     7     3     4    1
     8     4     5    1
     9     5     6    1
    10     5     7    2
    11     6    30    1
    12     6    31    1
    13     6    32    1
    14     7     8    1
    15     8    26    1
    16     8     9    2
    17     9    10    1
    18    10    11    1
    19    11    12    1
    20    11    26    2
    21    12    13    1
    22    12    24    1
    23    12    14    1
    24    14    15    1
    25    14    33    1
    26    14    34    1
    27    15    16    1
    28    15    35    1
    29    15    36    1
    30    16    17    1
    31    16    24   am
    32    17    22   ar
    33    17    18   ar
    34    18    19   ar
    35    18    37    1
    36    19    20   ar
    37    19    38    1
    38    20    21   ar
    39    20    39    1
    40    21    22   ar
    41    21    40    1
    42    22    23    1
    43    24    25    2
@<TRIPOS>SUBSTRUCTURE
     1 ZINC000426607143        1 TEMP              0 ****  ****    0 ROOT


##########                                Name:    ZINC000948289723
##########                DOCK_Rotatable_Bonds:                   6
##########                         Heavy_Atoms:                  24
##########                    Molecular_Weight:             331.415
##########                DOCK_Rotatable_Bonds:                   6
##########                       Formal_Charge:           0.0599999
##########                     HBond_Acceptors:                   6
##########                        HBond_Donors:                   1
##########                         Heavy_Atoms:                  24
##########                          Grid_Score:          -25.288322
##########                     Grid_vdw_energy:          -26.218203
##########                      Grid_es_energy:            0.929880
##########           Internal_energy_repulsive:           14.084044

@<TRIPOS>MOLECULE
ZINC000948289723
 49 52 1 0 0
SMALL
USER_CHARGES


@<TRIPOS>ATOM
      1 C1          4.4307    5.0990   56.8716 C.3     1  ZINC000948289723   -0.1400
      2 C2          3.1771    4.9639   56.0047 C.3     1  ZINC000948289723   -0.1100
      3 C3          3.4246    5.2522   54.5146 C.3     1  ZINC000948289723   -0.1100
      4 C4          2.4842    4.0738   54.2113 C.3     1  ZINC000948289723   -0.1400
      5 C5          2.9456    3.2134   53.0633 C.2     1  ZINC000948289723    0.5400
      6 O6          4.1308    3.0806   52.8430 O.2     1  ZINC000948289723   -0.5300
      7 N7          2.0411    2.5915   52.2813 N.am    1  ZINC000948289723   -0.6200
      8 C8          2.3512    1.7268   51.1335 C.3     1  ZINC000948289723    0.1100
      9 C9          1.0088    1.2198   50.5658 C.3     1  ZINC000948289723   -0.1100
     10 H10         0.6845    1.8400   49.7302 H       1  ZINC000948289723    0.1000
     11 C11         1.1203   -0.2452   50.1386 C.3     1  ZINC000948289723   -0.1400
     12 C12         0.0424    1.3723   51.7701 C.3     1  ZINC000948289723    0.1400
     13 H13         0.1243    0.5218   52.4468 H       1  ZINC000948289723    0.1200
     14 N14        -1.3393    1.5472   51.3158 N.am    1  ZINC000948289723   -0.7100
     15 C15        -2.2543    2.0981   52.1377 C.2     1  ZINC000948289723    0.6100
     16 O16        -1.9328    2.4513   53.2558 O.2     1  ZINC000948289723   -0.5000
     17 C17        -3.6461    2.2726   51.6809 C.2     1  ZINC000948289723   -0.0900
     18 C18        -4.6101    3.0519   52.2601 C.2     1  ZINC000948289723   -0.1400
     19 C19        -5.7406    2.8599   51.4352 C.2     1  ZINC000948289723    0.0500
     20 C20        -7.0999    3.4869   51.6096 C.3     1  ZINC000948289723   -0.0900
     21 C21        -7.7334    3.4244   53.0009 C.3     1  ZINC000948289723   -0.1600
     22 C22        -7.1900    4.7511   52.4668 C.3     1  ZINC000948289723   -0.1600
     23 N23        -5.3790    2.0362   50.4950 N.2     1  ZINC000948289723   -0.3300
     24 O24        -4.2227    1.7018   50.6065 O.3     1  ZINC000948289723    0.1200
     25 C25         0.5769    2.6607   52.4391 C.3     1  ZINC000948289723    0.0900
     26 C26         2.8667    3.5154   55.5921 C.3     1  ZINC000948289723   -0.1200
     27 H27         5.2945    4.7251   56.3220 H       1  ZINC000948289723    0.0600
     28 H28         4.5866    6.1479   57.1238 H       1  ZINC000948289723    0.0600
     29 H29         4.3038    4.5203   57.7865 H       1  ZINC000948289723    0.0600
     30 H30         2.3184    5.4941   56.4167 H       1  ZINC000948289723    0.0900
     31 H31         3.0364    6.2164   54.1861 H       1  ZINC000948289723    0.0700
     32 H32         4.4546    5.0806   54.2019 H       1  ZINC000948289723    0.1000
     33 H33         1.4360    4.3614   54.1301 H       1  ZINC000948289723    0.1100
     34 H34         2.8836    2.2975   50.3725 H       1  ZINC000948289723    0.0800
     35 H35         2.9587    0.8823   51.4590 H       1  ZINC000948289723    0.0800
     36 H36         1.4162   -0.8516   50.9945 H       1  ZINC000948289723    0.0600
     37 H37         0.1557   -0.5893   49.7655 H       1  ZINC000948289723    0.0600
     38 H38         1.8685   -0.3381   49.3515 H       1  ZINC000948289723    0.0700
     39 H39        -1.5956    1.2666   50.4233 H       1  ZINC000948289723    0.4100
     40 H40        -4.5264    3.6692   53.1423 H       1  ZINC000948289723    0.1800
     41 H41        -7.7653    3.4136   50.7494 H       1  ZINC000948289723    0.1300
     42 H42        -8.8159    3.3097   53.0563 H       1  ZINC000948289723    0.1100
     43 H43        -7.1671    2.9296   53.7900 H       1  ZINC000948289723    0.1000
     44 H44        -6.2661    5.1292   52.9044 H       1  ZINC000948289723    0.1000
     45 H45        -7.9149    5.5093   52.1707 H       1  ZINC000948289723    0.1100
     46 H46         0.3062    2.6802   53.4948 H       1  ZINC000948289723    0.0900
     47 H47         0.1870    3.5421   51.9302 H       1  ZINC000948289723    0.0800
     48 H48         3.7441    2.8690   55.5740 H       1  ZINC000948289723    0.0900
     49 H49         2.0282    3.0773   56.1335 H       1  ZINC000948289723    0.0800
@<TRIPOS>BOND
     1     1     2    1
     2     1    27    1
     3     1    28    1
     4     1    29    1
     5     2    26    1
     6     2     3    1
     7     2    30    1
     8     3     4    1
     9     3    31    1
    10     3    32    1
    11     4     5    1
    12     4    26    1
    13     4    33    1
    14     5     6    2
    15     5     7   am
    16     7    25    1
    17     7     8    1
    18     8     9    1
    19     8    34    1
    20     8    35    1
    21     9    10    1
    22     9    11    1
    23     9    12    1
    24    11    36    1
    25    11    37    1
    26    11    38    1
    27    12    13    1
    28    12    14    1
    29    12    25    1
    30    14    15   am
    31    14    39    1
    32    15    16    2
    33    15    17    1
    34    17    24    1
    35    17    18    2
    36    18    19    1
    37    18    40    1
    38    19    20    1
    39    19    23    2
    40    20    22    1
    41    20    21    1
    42    20    41    1
    43    21    22    1
    44    21    42    1
    45    21    43    1
    46    22    44    1
    47    22    45    1
    48    23    24    1
    49    25    46    1
    50    25    47    1
    51    26    48    1
    52    26    49    1
@<TRIPOS>SUBSTRUCTURE
     1 ZINC000948289723        1 TEMP              0 ****  ****    0 ROOT


##########                                Name:    ZINC000465392830
##########                DOCK_Rotatable_Bonds:                   8
##########                         Heavy_Atoms:                  29
##########                    Molecular_Weight:             419.588
##########                DOCK_Rotatable_Bonds:                   8
##########                       Formal_Charge:           0.0199996
##########                     HBond_Acceptors:                   7
##########                        HBond_Donors:                   0
##########                         Heavy_Atoms:                  29
##########                          Grid_Score:          -25.225330
##########                     Grid_vdw_energy:          -24.345392
##########                      Grid_es_energy:           -0.879939
##########           Internal_energy_repulsive:           48.934654

@<TRIPOS>MOLECULE
ZINC000465392830
 62 64 1 0 0
SMALL
USER_CHARGES


@<TRIPOS>ATOM
      1 C1        -14.1545    3.3904   61.9684 C.3     1  ZINC000465392830    0.0400
      2 O2        -14.1722    2.6266   60.7336 O.3     1  ZINC000465392830   -0.3600
      3 C3        -15.3173    1.9999   60.4211 C.2     1  ZINC000465392830    0.4600
      4 O4        -16.2731    2.0862   61.1552 O.2     1  ZINC000465392830   -0.4900
      5 C5        -15.4108    1.1886   59.1545 C.3     1  ZINC000465392830    0.1500
      6 H6        -16.1047    0.3600   59.2956 H       1  ZINC000465392830    0.1100
      7 C7        -15.8908    2.0833   57.9923 C.3     1  ZINC000465392830   -0.1100
      8 C8        -15.0522    1.5722   56.7911 C.3     1  ZINC000465392830   -0.0900
      9 H9        -15.5043    0.6846   56.3485 H       1  ZINC000465392830    0.1000
     10 C10       -14.8692    2.6715   55.7428 C.3     1  ZINC000465392830   -0.0800
     11 C11       -14.1463    3.8631   56.3740 C.3     1  ZINC000465392830   -0.1200
     12 C12       -13.9634    4.9624   55.3258 C.3     1  ZINC000465392830   -0.1200
     13 C13       -13.1335    4.4219   54.1595 C.3     1  ZINC000465392830   -0.1200
     14 C14       -13.8564    3.2304   53.5282 C.3     1  ZINC000465392830   -0.1200
     15 C15       -14.0393    2.1311   54.5765 C.3     1  ZINC000465392830   -0.1200
     16 C16       -13.7062    1.2272   57.4757 C.3     1  ZINC000465392830    0.1000
     17 N17       -14.0826    0.6723   58.7923 N.am    1  ZINC000465392830   -0.6100
     18 C18       -13.3315   -0.1636   59.5363 C.2     1  ZINC000465392830    0.5400
     19 O19       -13.7413   -0.5553   60.6084 O.2     1  ZINC000465392830   -0.5300
     20 C20       -11.9826   -0.6118   59.0357 C.3     1  ZINC000465392830   -0.1300
     21 C21       -11.6831   -2.0160   59.5645 C.3     1  ZINC000465392830   -0.0600
     22 C22       -10.3443   -2.4734   59.0454 C.ar    1  ZINC000465392830   -0.2000
     23 C23        -9.1816   -2.2028   59.7501 C.ar    1  ZINC000465392830    0.2000
     24 C24        -9.2376   -1.4449   61.0515 C.3     1  ZINC000465392830   -0.1100
     25 N25        -8.0227   -2.6181   59.2668 N.ar    1  ZINC000465392830   -0.5000
     26 C26        -7.9658   -3.2857   58.1230 C.ar    1  ZINC000465392830    0.3000
     27 S27        -6.4005   -3.8204   57.5160 S.3     1  ZINC000465392830    0.0000
     28 C28        -6.9002   -4.5023   55.9156 C.3     1  ZINC000465392830   -0.1400
     29 N29        -9.0588   -3.5609   57.4254 N.ar    1  ZINC000465392830   -0.5300
     30 C30       -10.2496   -3.1786   57.8557 C.ar    1  ZINC000465392830    0.2000
     31 C31       -11.4872   -3.4956   57.0565 C.3     1  ZINC000465392830   -0.1100
     32 H32       -14.9132    4.1718   61.9232 H       1  ZINC000465392830    0.0600
     33 H33       -14.3646    2.7281   62.8083 H       1  ZINC000465392830    0.0600
     34 H34       -13.1725    3.8446   62.1007 H       1  ZINC000465392830    0.1000
     35 H35       -16.9554    1.9387   57.8087 H       1  ZINC000465392830    0.1000
     36 H36       -15.6725    3.1314   58.1969 H       1  ZINC000465392830    0.0800
     37 H37       -15.8451    2.9908   55.3770 H       1  ZINC000465392830    0.0800
     38 H38       -14.7376    4.2480   57.2049 H       1  ZINC000465392830    0.0600
     39 H39       -13.1704    3.5438   56.7398 H       1  ZINC000465392830    0.0700
     40 H40       -14.9394    5.2817   54.9600 H       1  ZINC000465392830    0.0600
     41 H41       -13.4484    5.8113   55.7755 H       1  ZINC000465392830    0.0600
     42 H42       -13.0032    5.2051   53.4127 H       1  ZINC000465392830    0.0600
     43 H43       -12.1576    4.1027   54.5253 H       1  ZINC000465392830    0.0600
     44 H44       -14.8323    3.5497   53.1624 H       1  ZINC000465392830    0.0600
     45 H45       -13.2651    2.8453   52.6974 H       1  ZINC000465392830    0.0600
     46 H46       -13.0634    1.8118   54.9422 H       1  ZINC000465392830    0.0700
     47 H47       -14.5543    1.2822   54.1267 H       1  ZINC000465392830    0.0600
     48 H48       -13.1639    0.4827   56.8929 H       1  ZINC000465392830    0.0900
     49 H49       -13.1025    2.1262   57.6002 H       1  ZINC000465392830    0.0800
     50 H50       -11.9862   -0.6272   57.9458 H       1  ZINC000465392830    0.1000
     51 H51       -11.2166    0.0796   59.3868 H       1  ZINC000465392830    0.1000
     52 H52       -11.6632   -1.9973   60.6542 H       1  ZINC000465392830    0.0900
     53 H53       -12.4581   -2.7043   59.2271 H       1  ZINC000465392830    0.0900
     54 H54        -9.3548   -2.1476   61.8764 H       1  ZINC000465392830    0.0900
     55 H55        -8.3143   -0.8806   61.1833 H       1  ZINC000465392830    0.0900
     56 H56       -10.0840   -0.7583   61.0359 H       1  ZINC000465392830    0.0900
     57 H57        -7.6142   -5.3109   56.0723 H       1  ZINC000465392830    0.0900
     58 H58        -7.3640   -3.7193   55.3158 H       1  ZINC000465392830    0.0900
     59 H59        -6.0234   -4.8876   55.3951 H       1  ZINC000465392830    0.1100
     60 H60       -11.8867   -4.4593   57.3723 H       1  ZINC000465392830    0.0900
     61 H61       -12.2351   -2.7202   57.2223 H       1  ZINC000465392830    0.0900
     62 H62       -11.2349   -3.5364   55.9969 H       1  ZINC000465392830    0.0800
@<TRIPOS>BOND
     1     1     2    1
     2     1    32    1
     3     1    33    1
     4     1    34    1
     5     2     3    1
     6     3     4    2
     7     3     5    1
     8     5     6    1
     9     5    17    1
    10     5     7    1
    11     7     8    1
    12     7    35    1
    13     7    36    1
    14     8     9    1
    15     8    10    1
    16     8    16    1
    17    10    15    1
    18    10    11    1
    19    10    37    1
    20    11    12    1
    21    11    38    1
    22    11    39    1
    23    12    13    1
    24    12    40    1
    25    12    41    1
    26    13    14    1
    27    13    42    1
    28    13    43    1
    29    14    15    1
    30    14    44    1
    31    14    45    1
    32    15    46    1
    33    15    47    1
    34    16    17    1
    35    16    48    1
    36    16    49    1
    37    17    18   am
    38    18    19    2
    39    18    20    1
    40    20    21    1
    41    20    50    1
    42    20    51    1
    43    21    22    1
    44    21    52    1
    45    21    53    1
    46    22    30   ar
    47    22    23   ar
    48    23    24    1
    49    23    25   ar
    50    24    54    1
    51    24    55    1
    52    24    56    1
    53    25    26   ar
    54    26    27    1
    55    26    29   ar
    56    27    28    1
    57    28    57    1
    58    28    58    1
    59    28    59    1
    60    29    30   ar
    61    30    31    1
    62    31    60    1
    63    31    61    1
    64    31    62    1
@<TRIPOS>SUBSTRUCTURE
     1 ZINC000465392830        1 TEMP              0 ****  ****    0 ROOT


##########                                Name:    ZINC000824084043
##########                DOCK_Rotatable_Bonds:                  11
##########                         Heavy_Atoms:                  27
##########                    Molecular_Weight:             382.547
##########                DOCK_Rotatable_Bonds:                  11
##########                       Formal_Charge:        -6.85453e-07
##########                     HBond_Acceptors:                   7
##########                        HBond_Donors:                   3
##########                         Heavy_Atoms:                  27
##########                          Grid_Score:          -25.204670
##########                     Grid_vdw_energy:          -25.873505
##########                      Grid_es_energy:            0.668836
##########           Internal_energy_repulsive:           41.913071

@<TRIPOS>MOLECULE
ZINC000824084043
 65 66 1 0 0
SMALL
USER_CHARGES


@<TRIPOS>ATOM
      1 C1        -13.4246    0.9522   53.3821 C.3     1  ZINC000824084043   -0.1400
      2 C2        -13.8342    0.1873   54.6423 C.3     1  ZINC000824084043   -0.1000
      3 C3        -14.9799    0.9257   55.3373 C.3     1  ZINC000824084043   -0.1300
      4 C4        -14.2937   -1.2204   54.2577 C.3     1  ZINC000824084043    0.1700
      5 H5        -13.4779   -1.7461   53.7617 H       1  ZINC000824084043    0.0700
      6 C6        -14.7021   -1.9858   55.5180 C.3     1  ZINC000824084043   -0.1400
      7 C7        -13.5056   -2.0813   56.4668 C.3     1  ZINC000824084043    0.1300
      8 N8        -13.8965   -2.8147   57.6733 N.am    1  ZINC000824084043   -0.6200
      9 C9        -14.9326   -3.8477   57.5992 C.3     1  ZINC000824084043    0.0800
     10 C10       -13.3028   -2.5390   58.8514 C.2     1  ZINC000824084043    0.7000
     11 O11       -13.6281   -3.1466   59.8531 O.2     1  ZINC000824084043   -0.5800
     12 N12       -12.3484   -1.5898   58.9192 N.am    1  ZINC000824084043   -0.7500
     13 C13       -11.7018   -1.2912   60.1994 C.3     1  ZINC000824084043    0.1600
     14 C14       -10.2130   -1.0158   59.9691 C.3     1  ZINC000824084043   -0.1600
     15 C15        -9.5604   -0.6272   61.2976 C.3     1  ZINC000824084043   -0.0100
     16 N16       -10.2060    0.5787   61.8298 N.4     1  ZINC000824084043   -0.3800
     17 H17       -10.1435    1.3208   61.1489 H       1  ZINC000824084043    0.4200
     18 C18        -9.5268    0.9914   63.0652 C.3     1  ZINC000824084043    0.0000
     19 C19        -9.8389    2.4615   63.3522 C.3     1  ZINC000824084043   -0.1200
     20 C20        -8.9881    2.9742   64.5407 C.3     1  ZINC000824084043   -0.1400
     21 C21        -8.9548    4.5042   64.3021 C.3     1  ZINC000824084043   -0.1200
     22 C22        -8.8424    4.6460   62.7700 C.3     1  ZINC000824084043   -0.1300
     23 C23        -9.4046    3.3471   62.1661 C.3     1  ZINC000824084043   -0.1100
     24 C24       -11.6178    0.3009   62.1204 C.3     1  ZINC000824084043    0.0000
     25 C25       -12.3495   -0.0519   60.8236 C.3     1  ZINC000824084043   -0.1600
     26 N26       -15.4394   -1.1290   53.3492 N.am    1  ZINC000824084043   -0.7800
     27 C27       -15.2406   -1.0740   52.0173 C.2     1  ZINC000824084043    0.6600
     28 O28       -16.1971   -0.9992   51.2588 O.co2   1  ZINC000824084043   -0.7200
     29 O29       -14.1036   -1.0990   51.5672 O.co2   1  ZINC000824084043   -0.7300
     30 H30       -13.0973    1.9551   53.6562 H       1  ZINC000824084043    0.0500
     31 H31       -12.6084    0.4262   52.8870 H       1  ZINC000824084043    0.0500
     32 H32       -14.2764    1.0202   52.7055 H       1  ZINC000824084043    0.0500
     33 H33       -12.9824    0.1192   55.3191 H       1  ZINC000824084043    0.0500
     34 H34       -15.8317    0.9937   54.6607 H       1  ZINC000824084043    0.0600
     35 H35       -15.2717    0.3808   56.2352 H       1  ZINC000824084043    0.0700
     36 H36       -14.6526    1.9286   55.6113 H       1  ZINC000824084043    0.0300
     37 H37       -15.5180   -1.4601   56.0140 H       1  ZINC000824084043    0.0700
     38 H38       -15.0294   -2.9887   55.2439 H       1  ZINC000824084043    0.0600
     39 H39       -12.6895   -2.6066   55.9707 H       1  ZINC000824084043    0.0900
     40 H40       -13.1786   -1.0784   56.7412 H       1  ZINC000824084043    0.0900
     41 H41       -14.4704   -4.8111   57.3839 H       1  ZINC000824084043    0.0600
     42 H42       -15.4599   -3.9025   58.5515 H       1  ZINC000824084043    0.0600
     43 H43       -15.6384   -3.5982   56.8068 H       1  ZINC000824084043    0.0800
     44 H44       -12.0896   -1.1042   58.1203 H       1  ZINC000824084043    0.4000
     45 H45       -11.8166   -2.1408   60.8726 H       1  ZINC000824084043    0.1100
     46 H46        -9.7335   -1.9125   59.5766 H       1  ZINC000824084043    0.1200
     47 H47       -10.1000   -0.1997   59.2556 H       1  ZINC000824084043    0.0900
     48 H48        -9.6738   -1.4441   62.0102 H       1  ZINC000824084043    0.1300
     49 H49        -8.5003   -0.4306   61.1372 H       1  ZINC000824084043    0.1300
     50 H50        -9.8766    0.3770   63.8948 H       1  ZINC000824084043    0.1300
     51 H51        -8.4506    0.8646   62.9478 H       1  ZINC000824084043    0.1300
     52 H52       -10.9015    2.5920   63.5569 H       1  ZINC000824084043    0.1000
     53 H53        -9.4706    2.7416   65.4899 H       1  ZINC000824084043    0.0700
     54 H54        -7.9822    2.5557   64.5046 H       1  ZINC000824084043    0.0800
     55 H55        -9.8741    4.9665   64.6616 H       1  ZINC000824084043    0.0700
     56 H56        -8.0872    4.9477   64.7907 H       1  ZINC000824084043    0.0800
     57 H57        -9.4284    5.4999   62.4302 H       1  ZINC000824084043    0.0700
     58 H58        -7.7986    4.7704   62.4821 H       1  ZINC000824084043    0.0700
     59 H59        -8.6335    2.8412   61.5851 H       1  ZINC000824084043    0.0700
     60 H60       -10.2633    3.5707   61.5332 H       1  ZINC000824084043    0.0800
     61 H61       -11.6873   -0.5357   62.8156 H       1  ZINC000824084043    0.1300
     62 H62       -12.0765    1.1828   62.5675 H       1  ZINC000824084043    0.1300
     63 H63       -12.2808    0.7842   60.1279 H       1  ZINC000824084043    0.0900
     64 H64       -13.3971   -0.2596   61.0419 H       1  ZINC000824084043    0.1200
     65 H65       -16.3411   -1.1078   53.7063 H       1  ZINC000824084043    0.3600
@<TRIPOS>BOND
     1     1     2    1
     2     1    30    1
     3     1    31    1
     4     1    32    1
     5     2     3    1
     6     2     4    1
     7     2    33    1
     8     3    34    1
     9     3    35    1
    10     3    36    1
    11     4     5    1
    12     4     6    1
    13     4    26    1
    14     6     7    1
    15     6    37    1
    16     6    38    1
    17     7     8    1
    18     7    39    1
    19     7    40    1
    20     8     9    1
    21     8    10   am
    22     9    41    1
    23     9    42    1
    24     9    43    1
    25    10    11    2
    26    10    12   am
    27    12    13    1
    28    12    44    1
    29    13    25    1
    30    13    14    1
    31    13    45    1
    32    14    15    1
    33    14    46    1
    34    14    47    1
    35    15    16    1
    36    15    48    1
    37    15    49    1
    38    16    17    1
    39    16    18    1
    40    16    24    1
    41    18    19    1
    42    18    50    1
    43    18    51    1
    44    19    23    1
    45    19    20    1
    46    19    52    1
    47    20    21    1
    48    20    53    1
    49    20    54    1
    50    21    22    1
    51    21    55    1
    52    21    56    1
    53    22    23    1
    54    22    57    1
    55    22    58    1
    56    23    59    1
    57    23    60    1
    58    24    25    1
    59    24    61    1
    60    24    62    1
    61    25    63    1
    62    25    64    1
    63    26    27   am
    64    26    65    1
    65    27    28   ar
    66    27    29   ar
@<TRIPOS>SUBSTRUCTURE
     1 ZINC000824084043        1 TEMP              0 ****  ****    0 ROOT


##########                                Name:    ZINC001060733018
##########                DOCK_Rotatable_Bonds:                   7
##########                         Heavy_Atoms:                  24
##########                    Molecular_Weight:             342.429
##########                DOCK_Rotatable_Bonds:                   7
##########                       Formal_Charge:           0.0200001
##########                     HBond_Acceptors:                   6
##########                        HBond_Donors:                   2
##########                         Heavy_Atoms:                  24
##########                          Grid_Score:          -25.154026
##########                     Grid_vdw_energy:          -21.247038
##########                      Grid_es_energy:           -3.906988
##########           Internal_energy_repulsive:            8.574345

@<TRIPOS>MOLECULE
ZINC001060733018
 52 54 1 0 0
SMALL
USER_CHARGES


@<TRIPOS>ATOM
      1 O1          1.8918    2.0957   63.5496 O.2     1  ZINC001060733018   -0.5000
      2 C2          0.8638    1.4603   63.6506 C.2     1  ZINC001060733018    0.4700
      3 N3         -0.2147    1.8025   62.9183 N.am    1  ZINC001060733018   -0.7100
      4 C4         -0.1465    2.9447   62.0035 C.3     1  ZINC001060733018    0.1200
      5 C5          0.0534    2.4410   60.5727 C.3     1  ZINC001060733018   -0.1000
      6 H6         -0.5154    1.5224   60.4282 H       1  ZINC001060733018    0.0800
      7 C7         -0.4338    3.5034   59.5853 C.3     1  ZINC001060733018   -0.1100
      8 C8         -0.2340    2.9995   58.1545 C.3     1  ZINC001060733018   -0.1300
      9 C9          1.2515    2.7228   57.9140 C.3     1  ZINC001060733018    0.1400
     10 H10         1.8202    3.6413   58.0586 H       1  ZINC001060733018    0.0900
     11 N11         1.4428    2.2405   56.5440 N.am    1  ZINC001060733018   -0.7300
     12 C12         2.0651    3.0185   55.6364 C.2     1  ZINC001060733018    0.5200
     13 O13         2.4680    4.1174   55.9542 O.2     1  ZINC001060733018   -0.5400
     14 C14         2.2603    2.5230   54.2266 C.3     1  ZINC001060733018   -0.1000
     15 H15         2.6937    1.5231   54.2496 H       1  ZINC001060733018    0.1000
     16 C16         3.2008    3.4695   53.4791 C.3     1  ZINC001060733018   -0.1100
     17 C17         3.4632    2.9343   52.0706 C.3     1  ZINC001060733018   -0.1200
     18 C18         2.1491    2.9012   51.2843 C.3     1  ZINC001060733018   -0.0800
     19 C19         1.1317    2.0545   52.0548 C.3     1  ZINC001060733018   -0.1300
     20 C20         1.0573    0.5631   51.7288 C.3     1  ZINC001060733018   -0.1700
     21 C21        -0.0651    1.5022   51.2817 C.3     1  ZINC001060733018   -0.1700
     22 C22         0.9074    2.4768   53.5097 C.3     1  ZINC001060733018   -0.0600
     23 C23         1.7387    1.6605   58.9015 C.3     1  ZINC001060733018   -0.1200
     24 C24         1.5388    2.1643   60.3323 C.3     1  ZINC001060733018   -0.1100
     25 C25         0.7941    0.2842   64.5903 C.3     1  ZINC001060733018    0.2600
     26 F26         1.6266    0.5165   65.6904 F       1  ZINC001060733018   -0.1700
     27 F27        -0.5234    0.1158   65.0297 F       1  ZINC001060733018   -0.1900
     28 H28        -1.0361    1.2926   62.9970 H       1  ZINC001060733018    0.4100
     29 H29        -1.0747    3.5133   62.0622 H       1  ZINC001060733018    0.0800
     30 H30         0.6901    3.5850   62.2834 H       1  ZINC001060733018    0.0800
     31 H31        -1.4920    3.7005   59.7565 H       1  ZINC001060733018    0.0700
     32 H32         0.1349    4.4218   59.7299 H       1  ZINC001060733018    0.0700
     33 H33        -0.5810    3.7563   57.4510 H       1  ZINC001060733018    0.0700
     34 H34        -0.8027    2.0810   58.0100 H       1  ZINC001060733018    0.0600
     35 H35         1.1217    1.3610   56.2902 H       1  ZINC001060733018    0.4000
     36 H36         2.7433    4.4566   53.4121 H       1  ZINC001060733018    0.0700
     37 H37         4.1447    3.5434   54.0191 H       1  ZINC001060733018    0.0700
     38 H38         4.1750    3.5843   51.5616 H       1  ZINC001060733018    0.0700
     39 H39         3.8735    1.9265   52.1354 H       1  ZINC001060733018    0.0700
     40 H40         1.7670    3.9155   51.1689 H       1  ZINC001060733018    0.0700
     41 H41         2.3219    2.4605   50.3026 H       1  ZINC001060733018    0.0700
     42 H42         1.7302    0.1814   50.9609 H       1  ZINC001060733018    0.0900
     43 H43         0.8438   -0.1216   52.5497 H       1  ZINC001060733018    0.0900
     44 H44        -1.0171    1.4353   51.8083 H       1  ZINC001060733018    0.0900
     45 H45        -0.1309    1.7387   50.2197 H       1  ZINC001060733018    0.0900
     46 H46         0.2571    1.7547   54.0034 H       1  ZINC001060733018    0.0700
     47 H47         0.4462    3.4641   53.5364 H       1  ZINC001060733018    0.0800
     48 H48         2.7969    1.4633   58.7302 H       1  ZINC001060733018    0.0700
     49 H49         1.1699    0.7419   58.7569 H       1  ZINC001060733018    0.0700
     50 H50         2.1077    3.0827   60.4768 H       1  ZINC001060733018    0.0700
     51 H51         1.8860    1.4075   61.0358 H       1  ZINC001060733018    0.0700
     52 H52         1.1216   -0.6161   64.0704 H       1  ZINC001060733018    0.1400
@<TRIPOS>BOND
     1     1     2    2
     2     2     3   am
     3     2    25    1
     4     3     4    1
     5     3    28    1
     6     4     5    1
     7     4    29    1
     8     4    30    1
     9     5     6    1
    10     5    24    1
    11     5     7    1
    12     7     8    1
    13     7    31    1
    14     7    32    1
    15     8     9    1
    16     8    33    1
    17     8    34    1
    18     9    10    1
    19     9    11    1
    20     9    23    1
    21    11    12   am
    22    11    35    1
    23    12    13    2
    24    12    14    1
    25    14    15    1
    26    14    22    1
    27    14    16    1
    28    16    17    1
    29    16    36    1
    30    16    37    1
    31    17    18    1
    32    17    38    1
    33    17    39    1
    34    18    19    1
    35    18    40    1
    36    18    41    1
    37    19    21    1
    38    19    20    1
    39    19    22    1
    40    20    21    1
    41    20    42    1
    42    20    43    1
    43    21    44    1
    44    21    45    1
    45    22    46    1
    46    22    47    1
    47    23    24    1
    48    23    48    1
    49    23    49    1
    50    24    50    1
    51    24    51    1
    52    25    26    1
    53    25    27    1
    54    25    52    1
@<TRIPOS>SUBSTRUCTURE
     1 ZINC001060733018        1 TEMP              0 ****  ****    0 ROOT


##########                                Name:    ZINC000337709254
##########                DOCK_Rotatable_Bonds:                   7
##########                         Heavy_Atoms:                  22
##########                    Molecular_Weight:              329.42
##########                DOCK_Rotatable_Bonds:                   7
##########                       Formal_Charge:           0.0300004
##########                     HBond_Acceptors:                   8
##########                        HBond_Donors:                   2
##########                         Heavy_Atoms:                  22
##########                          Grid_Score:          -25.144985
##########                     Grid_vdw_energy:          -22.602222
##########                      Grid_es_energy:           -2.542763
##########           Internal_energy_repulsive:           13.717033

@<TRIPOS>MOLECULE
ZINC000337709254
 45 46 1 0 0
SMALL
USER_CHARGES


@<TRIPOS>ATOM
      1 C1         -6.9222    0.0197   65.9945 C.3     1  ZINC000337709254   -0.6700
      2 S2         -8.1129   -0.6440   64.7977 S.o2    1  ZINC000337709254    2.6100
      3 O3         -7.5632   -0.6302   63.4873 O.2     1  ZINC000337709254   -0.9500
      4 O4         -8.7443   -1.8072   65.3151 O.2     1  ZINC000337709254   -0.9500
      5 N5         -9.3209    0.4875   64.7457 N.am    1  ZINC000337709254   -1.1200
      6 C6         -9.0199    1.8621   64.3381 C.3     1  ZINC000337709254    0.1200
      7 C7        -10.0645    2.8101   64.9307 C.3     1  ZINC000337709254   -0.1100
      8 H8        -10.0824    2.7253   66.0174 H       1  ZINC000337709254    0.1100
      9 C9         -9.7739    4.2709   64.5057 C.3     1  ZINC000337709254   -0.1200
     10 C10       -11.1601    4.9484   64.6410 C.3     1  ZINC000337709254   -0.1200
     11 C11       -12.1553    3.8741   64.1560 C.3     1  ZINC000337709254   -0.1400
     12 C12       -11.4593    2.5121   64.3429 C.3     1  ZINC000337709254    0.1500
     13 H13       -12.0332    1.8907   65.0304 H       1  ZINC000337709254    0.1000
     14 N14       -11.3238    1.8364   63.0502 N.am    1  ZINC000337709254   -0.7200
     15 C15       -12.4184    1.3782   62.4112 C.2     1  ZINC000337709254    0.5300
     16 O16       -13.5159    1.5268   62.9057 O.2     1  ZINC000337709254   -0.5100
     17 C17       -12.2788    0.6814   61.0823 C.3     1  ZINC000337709254    0.0200
     18 C18       -11.1158   -0.2202   61.1188 C.1     1  ZINC000337709254    0.2000
     19 N19       -10.2182   -0.9160   61.1468 N.1     1  ZINC000337709254   -0.3900
     20 C20       -13.5471   -0.1269   60.7919 C.3     1  ZINC000337709254   -0.1500
     21 C21       -13.4289   -0.7670   59.4063 C.3     1  ZINC000337709254    0.0600
     22 O22       -13.2197    0.2534   58.4278 O.3     1  ZINC000337709254   -0.3700
     23 C23       -12.0237    1.0110   58.6214 C.3     1  ZINC000337709254    0.0600
     24 C24       -12.0855    1.7226   59.9755 C.3     1  ZINC000337709254   -0.1300
     25 H25        -6.5590    0.9870   65.6474 H       1  ZINC000337709254    0.1300
     26 H26        -7.4088    0.1402   66.9624 H       1  ZINC000337709254    0.1300
     27 H27        -6.0834   -0.6694   66.0928 H       1  ZINC000337709254    0.1300
     28 H28       -10.2278    0.2402   64.9852 H       1  ZINC000337709254    0.4200
     29 H29        -8.0302    2.1401   64.7002 H       1  ZINC000337709254    0.0600
     30 H30        -9.0417    1.9316   63.2505 H       1  ZINC000337709254    0.0900
     31 H31        -9.0510    4.7323   65.1785 H       1  ZINC000337709254    0.0800
     32 H32        -9.4235    4.3107   63.4743 H       1  ZINC000337709254    0.0700
     33 H33       -11.3572    5.2095   65.6808 H       1  ZINC000337709254    0.0700
     34 H34       -11.2155    5.8337   64.0075 H       1  ZINC000337709254    0.0700
     35 H35       -13.0657    3.9112   64.7542 H       1  ZINC000337709254    0.0800
     36 H36       -12.3924    4.0326   63.1041 H       1  ZINC000337709254    0.0700
     37 H37       -10.4461    1.7185   62.6542 H       1  ZINC000337709254    0.4000
     38 H38       -13.6625   -0.9066   61.5447 H       1  ZINC000337709254    0.0900
     39 H39       -14.4135    0.5341   60.8150 H       1  ZINC000337709254    0.1100
     40 H40       -12.5864   -1.4585   59.3960 H       1  ZINC000337709254    0.0500
     41 H41       -14.3465   -1.3084   59.1764 H       1  ZINC000337709254    0.1100
     42 H42       -11.1627    0.3427   58.6009 H       1  ZINC000337709254    0.0500
     43 H43       -11.9291    1.7505   57.8262 H       1  ZINC000337709254    0.1100
     44 H44       -12.9224    2.4209   59.9822 H       1  ZINC000337709254    0.1100
     45 H45       -11.1555    2.2654   60.1445 H       1  ZINC000337709254    0.0900
@<TRIPOS>BOND
     1     1     2    1
     2     1    25    1
     3     1    26    1
     4     1    27    1
     5     2     3    2
     6     2     4    2
     7     2     5   am
     8     5     6    1
     9     5    28    1
    10     6     7    1
    11     6    29    1
    12     6    30    1
    13     7     8    1
    14     7    12    1
    15     7     9    1
    16     9    10    1
    17     9    31    1
    18     9    32    1
    19    10    11    1
    20    10    33    1
    21    10    34    1
    22    11    12    1
    23    11    35    1
    24    11    36    1
    25    12    13    1
    26    12    14    1
    27    14    15   am
    28    14    37    1
    29    15    16    2
    30    15    17    1
    31    17    24    1
    32    17    18    1
    33    17    20    1
    34    18    19    3
    35    20    21    1
    36    20    38    1
    37    20    39    1
    38    21    22    1
    39    21    40    1
    40    21    41    1
    41    22    23    1
    42    23    24    1
    43    23    42    1
    44    23    43    1
    45    24    44    1
    46    24    45    1
@<TRIPOS>SUBSTRUCTURE
     1 ZINC000337709254        1 TEMP              0 ****  ****    0 ROOT


##########                                Name:    ZINC000478980774
##########                DOCK_Rotatable_Bonds:                   4
##########                         Heavy_Atoms:                  26
##########                    Molecular_Weight:             401.818
##########                DOCK_Rotatable_Bonds:                   4
##########                       Formal_Charge:          -0.0100001
##########                     HBond_Acceptors:                   9
##########                        HBond_Donors:                   1
##########                         Heavy_Atoms:                  26
##########                          Grid_Score:          -25.134563
##########                     Grid_vdw_energy:          -22.241741
##########                      Grid_es_energy:           -2.892821
##########           Internal_energy_repulsive:            7.486020

@<TRIPOS>MOLECULE
ZINC000478980774
 40 42 1 0 0
SMALL
USER_CHARGES


@<TRIPOS>ATOM
      1 C1        -12.2663    2.7071   63.6048 C.3     1  ZINC000478980774   -0.1400
      2 C2        -11.3719    1.4693   63.6981 C.3     1  ZINC000478980774   -0.4600
      3 H3        -11.5633    0.9527   64.6386 H       1  ZINC000478980774    0.1500
      4 C4        -11.6724    0.5445   62.5469 C.2     1  ZINC000478980774    0.5400
      5 O5        -12.7105   -0.0826   62.5277 O.2     1  ZINC000478980774   -0.5000
      6 N6        -10.7877    0.4140   61.5386 N.am    1  ZINC000478980774   -0.6600
      7 C7        -11.0670   -0.4457   60.4683 C.ar    1  ZINC000478980774    0.1600
      8 C8        -10.3658   -1.6359   60.3327 C.ar    1  ZINC000478980774   -0.1200
      9 C9        -10.6399   -2.4849   59.2770 C.ar    1  ZINC000478980774   -0.0600
     10 C10       -11.6148   -2.1509   58.3515 C.ar    1  ZINC000478980774    0.0100
     11 O11       -12.0673   -2.8026   57.2397 O.3     1  ZINC000478980774   -0.2900
     12 C12       -13.3343   -2.1942   56.9268 C.3     1  ZINC000478980774    0.5700
     13 F13       -13.5326   -2.1558   55.5424 F       1  ZINC000478980774   -0.1100
     14 F14       -14.3785   -2.8837   57.5525 F       1  ZINC000478980774   -0.1500
     15 O15       -13.2144   -0.8613   57.4578 O.3     1  ZINC000478980774   -0.2800
     16 C16       -12.3206   -0.9570   58.4852 C.ar    1  ZINC000478980774    0.0500
     17 C17       -12.0494   -0.1100   59.5461 C.ar    1  ZINC000478980774   -0.0900
     18 S18        -9.6310    1.9746   63.6292 S.o     1  ZINC000478980774    1.3000
     19 O19        -9.3737    2.6195   62.3895 O.2     1  ZINC000478980774   -0.7800
     20 C20        -9.5030    3.1820   64.9769 C.3     1  ZINC000478980774   -0.4300
     21 C21        -8.0912    3.7041   65.0510 C.ar    1  ZINC000478980774   -0.0600
     22 C22        -7.7526    4.8756   64.4009 C.ar    1  ZINC000478980774   -0.1100
     23 C23        -6.4575    5.3549   64.4688 C.ar    1  ZINC000478980774   -0.1100
     24 C24        -5.5004    4.6622   65.1863 C.ar    1  ZINC000478980774   -0.1100
     25 C25        -5.8380    3.4902   65.8370 C.ar    1  ZINC000478980774   -0.1100
     26 C26        -7.1350    3.0136   65.7746 C.ar    1  ZINC000478980774   -0.0300
     27 Cl27       -7.5596    1.5418   66.5915 Cl      1  ZINC000478980774   -0.0600
     28 H28       -12.0489    3.3760   64.4375 H       1  ZINC000478980774    0.0800
     29 H29       -12.0748    3.2237   62.6643 H       1  ZINC000478980774    0.0700
     30 H30       -13.3123    2.4036   63.6462 H       1  ZINC000478980774    0.0700
     31 H31        -9.9574    0.9154   61.5540 H       1  ZINC000478980774    0.4200
     32 H32        -9.6048   -1.8986   61.0527 H       1  ZINC000478980774    0.1500
     33 H33       -10.0928   -3.4102   59.1735 H       1  ZINC000478980774    0.1500
     34 H34       -12.5987    0.8135   59.6543 H       1  ZINC000478980774    0.1600
     35 H35       -10.1871    4.0096   64.7896 H       1  ZINC000478980774    0.1100
     36 H36        -9.7628    2.7022   65.9205 H       1  ZINC000478980774    0.1300
     37 H37        -8.4998    5.4169   63.8395 H       1  ZINC000478980774    0.1400
     38 H38        -6.1933    6.2705   63.9605 H       1  ZINC000478980774    0.1300
     39 H39        -4.4888    5.0366   65.2383 H       1  ZINC000478980774    0.1300
     40 H40        -5.0901    2.9491   66.3977 H       1  ZINC000478980774    0.1300
@<TRIPOS>BOND
     1     1     2    1
     2     1    28    1
     3     1    29    1
     4     1    30    1
     5     2     3    1
     6     2     4    1
     7     2    18    1
     8     4     5    2
     9     4     6   am
    10     6     7    1
    11     6    31    1
    12     7    17   ar
    13     7     8   ar
    14     8     9   ar
    15     8    32    1
    16     9    10   ar
    17     9    33    1
    18    10    16   ar
    19    10    11    1
    20    11    12    1
    21    12    13    1
    22    12    14    1
    23    12    15    1
    24    15    16    1
    25    16    17   ar
    26    17    34    1
    27    18    19    2
    28    18    20    1
    29    20    21    1
    30    20    35    1
    31    20    36    1
    32    21    26   ar
    33    21    22   ar
    34    22    23   ar
    35    22    37    1
    36    23    24   ar
    37    23    38    1
    38    24    25   ar
    39    24    39    1
    40    25    26   ar
    41    25    40    1
    42    26    27    1
@<TRIPOS>SUBSTRUCTURE
     1 ZINC000478980774        1 TEMP              0 ****  ****    0 ROOT


##########                                Name:    ZINC000277085192
##########                DOCK_Rotatable_Bonds:                   4
##########                         Heavy_Atoms:                  23
##########                    Molecular_Weight:             335.747
##########                DOCK_Rotatable_Bonds:                   4
##########                       Formal_Charge:         5.96046e-08
##########                     HBond_Acceptors:                   8
##########                        HBond_Donors:                   2
##########                         Heavy_Atoms:                  23
##########                          Grid_Score:          -25.117901
##########                     Grid_vdw_energy:          -22.958822
##########                      Grid_es_energy:           -2.159078
##########           Internal_energy_repulsive:            7.669100

@<TRIPOS>MOLECULE
ZINC000277085192
 37 39 1 0 0
SMALL
USER_CHARGES


@<TRIPOS>ATOM
      1 O1         -9.6144    1.6888   59.4962 O.2     1  ZINC000277085192   -0.5000
      2 C2        -10.2095    1.8221   60.5447 C.2     1  ZINC000277085192    0.5000
      3 C3         -9.5124    2.4295   61.7347 C.3     1  ZINC000277085192    0.1100
      4 N4         -9.3264    1.4063   62.7665 N.am    1  ZINC000277085192   -0.6000
      5 C5         -9.3037   -0.0072   62.3855 C.3     1  ZINC000277085192    0.1100
      6 C6         -8.2983   -0.7571   63.2624 C.3     1  ZINC000277085192   -0.1600
      7 C7         -8.5098   -0.3668   64.7036 C.2     1  ZINC000277085192    0.5200
      8 O8         -8.3339   -1.1809   65.5845 O.2     1  ZINC000277085192   -0.5000
      9 N9         -8.8934    0.8857   65.0114 N.am    1  ZINC000277085192   -0.6700
     10 C10        -9.1737    1.7783   64.0479 C.2     1  ZINC000277085192    0.7200
     11 O11        -9.3009    2.9502   64.3438 O.2     1  ZINC000277085192   -0.5500
     12 N12       -11.4957    1.4321   60.6438 N.am    1  ZINC000277085192   -0.6700
     13 C13       -12.1434    0.8677   59.5382 C.ar    1  ZINC000277085192    0.1400
     14 C14       -12.3626   -0.4964   59.4876 C.ar    1  ZINC000277085192   -0.0400
     15 C15       -13.0113   -1.0628   58.3793 C.ar    1  ZINC000277085192   -0.1700
     16 C16       -13.4306   -0.2379   57.3351 C.ar    1  ZINC000277085192   -0.0500
     17 C17       -13.2063    1.1246   57.3972 C.ar    1  ZINC000277085192   -0.0900
     18 C18       -12.5716    1.6806   58.4928 C.ar    1  ZINC000277085192   -0.0300
     19 Cl19      -12.2962    3.3933   58.5581 Cl      1  ZINC000277085192   -0.0500
     20 C20       -14.0969   -1.0724   56.2673 C.3     1  ZINC000277085192   -0.0800
     21 C21       -14.0484   -2.5244   56.7623 C.3     1  ZINC000277085192   -0.1700
     22 C22       -13.3531   -2.4671   58.1007 C.2     1  ZINC000277085192    0.4100
     23 O23       -13.1174   -3.4134   58.8214 O.2     1  ZINC000277085192   -0.4300
     24 H24        -8.5409    2.8171   61.4280 H       1  ZINC000277085192    0.1300
     25 H25       -10.1182    3.2427   62.1345 H       1  ZINC000277085192    0.1200
     26 H26       -10.2962   -0.4363   62.5227 H       1  ZINC000277085192    0.0800
     27 H27        -9.0110   -0.0967   61.3394 H       1  ZINC000277085192    0.1000
     28 H28        -8.4472   -1.8310   63.1503 H       1  ZINC000277085192    0.1300
     29 H29        -7.2845   -0.4955   62.9593 H       1  ZINC000277085192    0.1200
     30 H30        -8.9649    1.1484   65.9425 H       1  ZINC000277085192    0.4300
     31 H31       -11.9728    1.5423   61.4812 H       1  ZINC000277085192    0.4200
     32 H32       -12.0341   -1.1264   60.3010 H       1  ZINC000277085192    0.1500
     33 H33       -13.5322    1.7596   56.5867 H       1  ZINC000277085192    0.1500
     34 H34       -15.1318   -0.7559   56.1363 H       1  ZINC000277085192    0.1000
     35 H35       -13.5544   -0.9791   55.3265 H       1  ZINC000277085192    0.1000
     36 H36       -15.0583   -2.9178   56.8778 H       1  ZINC000277085192    0.1100
     37 H37       -13.4791   -3.1414   56.0670 H       1  ZINC000277085192    0.1100
@<TRIPOS>BOND
     1     1     2    2
     2     2     3    1
     3     2    12   am
     4     3     4    1
     5     3    24    1
     6     3    25    1
     7     4    10   am
     8     4     5    1
     9     5     6    1
    10     5    26    1
    11     5    27    1
    12     6     7    1
    13     6    28    1
    14     6    29    1
    15     7     8    2
    16     7     9   am
    17     9    10   am
    18     9    30    1
    19    10    11    2
    20    12    13    1
    21    12    31    1
    22    13    18   ar
    23    13    14   ar
    24    14    15   ar
    25    14    32    1
    26    15    22    1
    27    15    16   ar
    28    16    17   ar
    29    16    20    1
    30    17    18   ar
    31    17    33    1
    32    18    19    1
    33    20    21    1
    34    20    34    1
    35    20    35    1
    36    21    22    1
    37    21    36    1
    38    21    37    1
    39    22    23    2
@<TRIPOS>SUBSTRUCTURE
     1 ZINC000277085192        1 TEMP              0 ****  ****    0 ROOT


##########                                Name:    ZINC001061022329
##########                DOCK_Rotatable_Bonds:                   7
##########                         Heavy_Atoms:                  27
##########                    Molecular_Weight:             374.523
##########                DOCK_Rotatable_Bonds:                   7
##########                       Formal_Charge:           0.0800005
##########                     HBond_Acceptors:                   5
##########                        HBond_Donors:                   0
##########                         Heavy_Atoms:                  27
##########                          Grid_Score:          -25.107374
##########                     Grid_vdw_energy:          -21.321234
##########                      Grid_es_energy:           -3.786141
##########           Internal_energy_repulsive:           32.007690

@<TRIPOS>MOLECULE
ZINC001061022329
 61 64 1 0 0
SMALL
USER_CHARGES


@<TRIPOS>ATOM
      1 C1         -6.0971   -3.9284   56.0483 C.3     1  ZINC001061022329   -0.1500
      2 C2         -7.1643   -4.9136   56.5293 C.3     1  ZINC001061022329   -0.1200
      3 C3         -7.8020   -4.3866   57.8163 C.3     1  ZINC001061022329    0.0800
      4 H4         -8.1053   -5.2262   58.4417 H       1  ZINC001061022329    0.0600
      5 C5         -6.7875   -3.5272   58.5733 C.3     1  ZINC001061022329   -0.1800
      6 O6         -8.9475   -3.5964   57.4914 O.3     1  ZINC001061022329   -0.3500
      7 C7         -9.5289   -2.9273   58.6122 C.3     1  ZINC001061022329    0.0500
      8 C8        -10.8810   -2.3844   58.2273 C.2     1  ZINC001061022329    0.5200
      9 O9        -11.3614   -2.6624   57.1489 O.2     1  ZINC001061022329   -0.5100
     10 N10       -11.5563   -1.5901   59.0812 N.am    1  ZINC001061022329   -0.6100
     11 C11       -12.8767   -1.0588   58.7183 C.3     1  ZINC001061022329    0.1100
     12 C12       -12.8427    0.4696   58.8360 C.3     1  ZINC001061022329   -0.1200
     13 C13       -12.3205    0.8530   60.2186 C.3     1  ZINC001061022329   -0.0900
     14 C14       -12.4503    2.3500   60.5316 C.3     1  ZINC001061022329    0.1200
     15 N15       -12.8944    1.9247   61.8741 N.am    1  ZINC001061022329   -0.6400
     16 C16       -12.8960    2.4988   63.0936 C.2     1  ZINC001061022329    0.5400
     17 O17       -13.3366    1.8940   64.0480 O.2     1  ZINC001061022329   -0.5300
     18 C18       -12.3503    3.8923   63.2709 C.3     1  ZINC001061022329   -0.0900
     19 H19       -12.8333    4.5644   62.5616 H       1  ZINC001061022329    0.1000
     20 C20       -10.8408    3.8846   63.0193 C.3     1  ZINC001061022329   -0.1000
     21 C21       -10.1077    4.3594   64.2804 C.3     1  ZINC001061022329   -0.0600
     22 H22        -9.0278    4.3124   64.1403 H       1  ZINC001061022329    0.0800
     23 C23       -10.5412    3.4684   65.4351 C.2     1  ZINC001061022329   -0.1800
     24 C24       -11.8540    3.4751   65.6539 C.2     1  ZINC001061022329   -0.1300
     25 C25       -12.6295    4.3722   64.7010 C.3     1  ZINC001061022329   -0.0400
     26 H26       -13.6955    4.3459   64.9266 H       1  ZINC001061022329    0.0900
     27 C27       -12.0771    5.7967   64.8483 C.3     1  ZINC001061022329   -0.1100
     28 C28       -10.5549    5.7955   64.5864 C.3     1  ZINC001061022329   -0.1100
     29 C29       -13.3367    0.6191   61.3451 C.3     1  ZINC001061022329    0.1100
     30 C30       -10.9359    0.2836   60.5173 C.3     1  ZINC001061022329   -0.1100
     31 C31       -10.9850   -1.2483   60.3905 C.3     1  ZINC001061022329    0.1100
     32 H32        -6.5577   -2.9595   55.8551 H       1  ZINC001061022329    0.0500
     33 H33        -5.3306   -3.8199   56.8156 H       1  ZINC001061022329    0.0600
     34 H34        -5.6427   -4.3039   55.1314 H       1  ZINC001061022329    0.0600
     35 H35        -7.9308   -5.0222   55.7619 H       1  ZINC001061022329    0.0800
     36 H36        -6.7037   -5.8825   56.7223 H       1  ZINC001061022329    0.0700
     37 H37        -7.2418   -3.1516   59.4901 H       1  ZINC001061022329    0.0600
     38 H38        -5.9138   -4.1299   58.8210 H       1  ZINC001061022329    0.0700
     39 H39        -6.4842   -2.6875   57.9478 H       1  ZINC001061022329    0.0700
     40 H40        -9.6414   -3.6309   59.4372 H       1  ZINC001061022329    0.0800
     41 H41        -8.8820   -2.1060   58.9207 H       1  ZINC001061022329    0.0800
     42 H42       -13.1148   -1.3411   57.6927 H       1  ZINC001061022329    0.0900
     43 H43       -13.6310   -1.4608   59.3948 H       1  ZINC001061022329    0.0800
     44 H44       -12.1834    0.8795   58.0710 H       1  ZINC001061022329    0.0800
     45 H45       -13.8487    0.8678   58.7032 H       1  ZINC001061022329    0.0800
     46 H46       -11.4997    2.8833   60.5312 H       1  ZINC001061022329    0.0800
     47 H47       -13.2233    2.8550   59.9522 H       1  ZINC001061022329    0.0900
     48 H48       -10.5192    2.8730   62.7715 H       1  ZINC001061022329    0.0700
     49 H49       -10.6075    4.5528   62.1904 H       1  ZINC001061022329    0.0700
     50 H50        -9.8480    2.8848   66.0225 H       1  ZINC001061022329    0.1200
     51 H51       -12.3250    2.8970   66.4352 H       1  ZINC001061022329    0.1200
     52 H52       -12.5624    6.4510   64.1242 H       1  ZINC001061022329    0.0700
     53 H53       -12.2753    6.1607   65.8564 H       1  ZINC001061022329    0.0700
     54 H54       -10.0336    6.1553   65.4734 H       1  ZINC001061022329    0.0700
     55 H55       -10.3310    6.4494   63.7436 H       1  ZINC001061022329    0.0700
     56 H56       -14.3731    0.6097   61.0075 H       1  ZINC001061022329    0.0900
     57 H57       -13.0906   -0.2234   61.9914 H       1  ZINC001061022329    0.0800
     58 H58       -10.2147    0.6874   59.8069 H       1  ZINC001061022329    0.0800
     59 H59       -10.6414    0.5547   61.5311 H       1  ZINC001061022329    0.0800
     60 H60       -11.6064   -1.6610   61.1853 H       1  ZINC001061022329    0.0700
     61 H61        -9.9760   -1.6536   60.4649 H       1  ZINC001061022329    0.1000
@<TRIPOS>BOND
     1     1     2    1
     2     1    32    1
     3     1    33    1
     4     1    34    1
     5     2     3    1
     6     2    35    1
     7     2    36    1
     8     3     4    1
     9     3     5    1
    10     3     6    1
    11     5    37    1
    12     5    38    1
    13     5    39    1
    14     6     7    1
    15     7     8    1
    16     7    40    1
    17     7    41    1
    18     8     9    2
    19     8    10   am
    20    10    31    1
    21    10    11    1
    22    11    12    1
    23    11    42    1
    24    11    43    1
    25    12    13    1
    26    12    44    1
    27    12    45    1
    28    13    29    1
    29    13    14    1
    30    13    30    1
    31    14    15    1
    32    14    46    1
    33    14    47    1
    34    15    16   am
    35    15    29    1
    36    16    17    2
    37    16    18    1
    38    18    19    1
    39    18    25    1
    40    18    20    1
    41    20    21    1
    42    20    48    1
    43    20    49    1
    44    21    22    1
    45    21    28    1
    46    21    23    1
    47    23    24    2
    48    23    50    1
    49    24    25    1
    50    24    51    1
    51    25    26    1
    52    25    27    1
    53    27    28    1
    54    27    52    1
    55    27    53    1
    56    28    54    1
    57    28    55    1
    58    29    56    1
    59    29    57    1
    60    30    31    1
    61    30    58    1
    62    30    59    1
    63    31    60    1
    64    31    61    1
@<TRIPOS>SUBSTRUCTURE
     1 ZINC001061022329        1 TEMP              0 ****  ****    0 ROOT


##########                                Name:    ZINC001318556452
##########                DOCK_Rotatable_Bonds:                   4
##########                         Heavy_Atoms:                  26
##########                    Molecular_Weight:             368.456
##########                DOCK_Rotatable_Bonds:                   4
##########                       Formal_Charge:          -0.0200005
##########                     HBond_Acceptors:                   6
##########                        HBond_Donors:                   1
##########                         Heavy_Atoms:                  26
##########                          Grid_Score:          -25.088278
##########                     Grid_vdw_energy:          -24.375370
##########                      Grid_es_energy:           -0.712907
##########           Internal_energy_repulsive:           21.798475

@<TRIPOS>MOLECULE
ZINC001318556452
 46 48 1 0 0
SMALL
USER_CHARGES


@<TRIPOS>ATOM
      1 C1         -9.1786    2.3382   63.1517 C.3     1  ZINC001318556452   -0.1300
      2 C2        -10.6399    2.6893   63.2634 C.ar    1  ZINC001318556452   -0.1000
      3 C3        -11.0612    3.6017   64.2103 C.ar    1  ZINC001318556452   -0.0500
      4 C4        -10.0587    4.2462   65.1327 C.3     1  ZINC001318556452   -0.4100
      5 S5         -9.4366    5.7736   64.3774 S.o     1  ZINC001318556452    1.2500
      6 C6         -8.2640    6.3927   65.6151 C.3     1  ZINC001318556452   -0.4900
      7 O7        -10.5048    6.6993   64.2320 O.2     1  ZINC001318556452   -0.8400
      8 C8        -12.4020    3.9251   64.3128 C.ar    1  ZINC001318556452   -0.1200
      9 C9        -13.3250    3.3357   63.4688 C.ar    1  ZINC001318556452   -0.1000
     10 C10       -12.9105    2.4215   62.5200 C.ar    1  ZINC001318556452   -0.1200
     11 C11       -11.5639    2.0995   62.4099 C.ar    1  ZINC001318556452    0.1400
     12 N12       -11.1409    1.1750   61.4504 N.am    1  ZINC001318556452   -0.6600
     13 C13       -11.6766   -0.0615   61.4238 C.2     1  ZINC001318556452    0.5600
     14 O14       -12.5272   -0.3727   62.2337 O.2     1  ZINC001318556452   -0.5000
     15 C15       -11.2279   -1.0420   60.4062 C.2     1  ZINC001318556452   -0.0300
     16 C16        -9.8980   -1.2721   60.1971 C.2     1  ZINC001318556452   -0.1600
     17 C17        -9.4872   -2.2448   59.1875 C.2     1  ZINC001318556452    0.5300
     18 O18        -8.3011   -2.4505   59.0004 O.2     1  ZINC001318556452   -0.5200
     19 N19       -10.3982   -2.9165   58.4622 N.am    1  ZINC001318556452   -0.5200
     20 C20        -9.9455   -3.8845   57.4600 C.3     1  ZINC001318556452    0.0600
     21 C21       -11.7496   -2.7133   58.6427 C.ar    1  ZINC001318556452    0.1800
     22 C22       -12.6770   -3.4194   57.8811 C.ar    1  ZINC001318556452   -0.1700
     23 C23       -14.0248   -3.2065   58.0718 C.ar    1  ZINC001318556452   -0.0600
     24 C24       -14.4696   -2.2932   59.0176 C.ar    1  ZINC001318556452   -0.1500
     25 C25       -13.5774   -1.5893   59.7760 C.ar    1  ZINC001318556452   -0.0600
     26 C26       -12.2053   -1.7932   59.6036 C.ar    1  ZINC001318556452   -0.1100
     27 H27        -8.6938    3.0193   62.4523 H       1  ZINC001318556452    0.0800
     28 H28        -8.7077    2.4271   64.1307 H       1  ZINC001318556452    0.0800
     29 H29        -9.0773    1.3145   62.7914 H       1  ZINC001318556452    0.0700
     30 H30       -10.5378    4.4801   66.0835 H       1  ZINC001318556452    0.1000
     31 H31        -9.2285    3.5608   65.3030 H       1  ZINC001318556452    0.1300
     32 H32        -7.4787    5.6536   65.7734 H       1  ZINC001318556452    0.1100
     33 H33        -7.8208    7.3239   65.2619 H       1  ZINC001318556452    0.1100
     34 H34        -8.7879    6.5729   66.5538 H       1  ZINC001318556452    0.0800
     35 H35       -12.7288    4.6393   65.0541 H       1  ZINC001318556452    0.1200
     36 H36       -14.3713    3.5902   63.5517 H       1  ZINC001318556452    0.1300
     37 H37       -13.6321    1.9613   61.8613 H       1  ZINC001318556452    0.1500
     38 H38       -10.4619    1.4234   60.8038 H       1  ZINC001318556452    0.4100
     39 H39        -9.1561   -0.7389   60.7732 H       1  ZINC001318556452    0.1600
     40 H40        -8.8561   -3.9171   57.4523 H       1  ZINC001318556452    0.1000
     41 H41       -10.3369   -4.8717   57.7057 H       1  ZINC001318556452    0.0800
     42 H42       -10.3070   -3.5849   56.4763 H       1  ZINC001318556452    0.0800
     43 H43       -12.3406   -4.1320   57.1424 H       1  ZINC001318556452    0.1400
     44 H44       -14.7421   -3.7552   57.4795 H       1  ZINC001318556452    0.1300
     45 H45       -15.5295   -2.1373   59.1549 H       1  ZINC001318556452    0.1300
     46 H46       -13.9313   -0.8804   60.5099 H       1  ZINC001318556452    0.1700
@<TRIPOS>BOND
     1     1     2    1
     2     1    27    1
     3     1    28    1
     4     1    29    1
     5     2    11   ar
     6     2     3   ar
     7     3     4    1
     8     3     8   ar
     9     4     5    1
    10     4    30    1
    11     4    31    1
    12     5     6    1
    13     5     7    2
    14     6    32    1
    15     6    33    1
    16     6    34    1
    17     8     9   ar
    18     8    35    1
    19     9    10   ar
    20     9    36    1
    21    10    11   ar
    22    10    37    1
    23    11    12    1
    24    12    13   am
    25    12    38    1
    26    13    14    2
    27    13    15    1
    28    15    26    1
    29    15    16    2
    30    16    17    1
    31    16    39    1
    32    17    18    2
    33    17    19   am
    34    19    20    1
    35    19    21    1
    36    20    40    1
    37    20    41    1
    38    20    42    1
    39    21    26   ar
    40    21    22   ar
    41    22    23   ar
    42    22    43    1
    43    23    24   ar
    44    23    44    1
    45    24    25   ar
    46    24    45    1
    47    25    26   ar
    48    25    46    1
@<TRIPOS>SUBSTRUCTURE
     1 ZINC001318556452        1 TEMP              0 ****  ****    0 ROOT


##########                                Name:    ZINC000331626032
##########                DOCK_Rotatable_Bonds:                   5
##########                         Heavy_Atoms:                  25
##########                    Molecular_Weight:              339.44
##########                DOCK_Rotatable_Bonds:                   5
##########                       Formal_Charge:        -2.16067e-07
##########                     HBond_Acceptors:                   6
##########                        HBond_Donors:                   2
##########                         Heavy_Atoms:                  25
##########                          Grid_Score:          -25.055237
##########                     Grid_vdw_energy:          -24.739813
##########                      Grid_es_energy:           -0.315425
##########           Internal_energy_repulsive:           27.010220

@<TRIPOS>MOLECULE
ZINC000331626032
 50 52 1 0 0
SMALL
USER_CHARGES


@<TRIPOS>ATOM
      1 C1        -11.9192    1.0448   62.7808 C.3     1  ZINC000331626032   -0.2000
      2 C2        -12.4626    1.1803   61.3569 C.3     1  ZINC000331626032    0.0700
      3 H3        -13.3950    1.7445   61.3761 H       1  ZINC000331626032    0.1100
      4 C4        -11.4550    1.9042   60.5015 C.2     1  ZINC000331626032    0.5200
      5 O5        -10.2730    1.6579   60.6170 O.2     1  ZINC000331626032   -0.5000
      6 N6        -11.8673    2.8253   59.6082 N.am    1  ZINC000331626032   -0.5800
      7 C7        -13.2948    3.1229   59.4687 C.3     1  ZINC000331626032    0.0800
      8 C8        -10.9316    3.4974   58.8140 C.ar    1  ZINC000331626032    0.1400
      9 C9        -10.7200    3.0992   57.5004 C.ar    1  ZINC000331626032   -0.1000
     10 C10        -9.7958    3.7648   56.7191 C.ar    1  ZINC000331626032   -0.1100
     11 C11        -9.0812    4.8260   57.2435 C.ar    1  ZINC000331626032   -0.1200
     12 C12        -9.2893    5.2247   58.5511 C.ar    1  ZINC000331626032   -0.1100
     13 C13       -10.2169    4.5677   59.3356 C.ar    1  ZINC000331626032   -0.1200
     14 N14       -12.7099   -0.1555   60.7979 N.3     1  ZINC000331626032   -0.5100
     15 C15       -13.8229   -0.1274   59.8404 C.3     1  ZINC000331626032    0.0500
     16 C16       -14.1462   -1.5538   59.3902 C.3     1  ZINC000331626032   -0.1100
     17 C17       -12.9053   -2.1725   58.7407 C.3     1  ZINC000331626032   -0.1100
     18 C18       -11.7475   -2.1454   59.7424 C.3     1  ZINC000331626032   -0.0400
     19 H19       -12.0041   -2.7512   60.6116 H       1  ZINC000331626032    0.1000
     20 C20       -10.5062   -2.6995   59.0919 C.ar    1  ZINC000331626032    0.2300
     21 C21        -9.3270   -2.8100   59.8115 C.ar    1  ZINC000331626032   -0.2900
     22 C22        -8.2081   -3.3248   59.1753 C.ar    1  ZINC000331626032    0.1900
     23 N23        -8.2986   -3.6930   57.9082 N.ar    1  ZINC000331626032   -0.5700
     24 C24        -9.4416   -3.5741   57.2484 C.ar    1  ZINC000331626032    0.5700
     25 N25        -9.5010   -3.9696   55.9233 N.pl3   1  ZINC000331626032   -0.8200
     26 N26       -10.5303   -3.0913   57.8286 N.ar    1  ZINC000331626032   -0.5700
     27 C27       -11.4937   -0.7019   60.1825 C.3     1  ZINC000331626032    0.0700
     28 H28       -10.9868    0.4806   62.7616 H       1  ZINC000331626032    0.0700
     29 H29       -11.7356    2.0359   63.1955 H       1  ZINC000331626032    0.0800
     30 H30       -12.6480    0.5212   63.3995 H       1  ZINC000331626032    0.0700
     31 H31       -13.5664    3.9286   60.1508 H       1  ZINC000331626032    0.0600
     32 H32       -13.5038    3.4287   58.4435 H       1  ZINC000331626032    0.0800
     33 H33       -13.8766    2.2328   59.7082 H       1  ZINC000331626032    0.0800
     34 H34       -11.2773    2.2699   57.0905 H       1  ZINC000331626032    0.1200
     35 H35        -9.6307    3.4555   55.6976 H       1  ZINC000331626032    0.1300
     36 H36        -8.3588    5.3447   56.6305 H       1  ZINC000331626032    0.1300
     37 H37        -8.7291    6.0537   58.9580 H       1  ZINC000331626032    0.1300
     38 H38       -10.3789    4.8795   60.3569 H       1  ZINC000331626032    0.1200
     39 H39       -14.7003    0.3109   60.3161 H       1  ZINC000331626032    0.0900
     40 H40       -13.5420    0.4719   58.9744 H       1  ZINC000331626032    0.0300
     41 H41       -14.4406   -2.1502   60.2537 H       1  ZINC000331626032    0.0800
     42 H42       -14.9621   -1.5313   58.6676 H       1  ZINC000331626032    0.0700
     43 H43       -13.1179   -3.2033   58.4574 H       1  ZINC000331626032    0.0700
     44 H44       -12.6336   -1.5989   57.8545 H       1  ZINC000331626032    0.0700
     45 H45        -9.2807   -2.5014   60.8455 H       1  ZINC000331626032    0.1400
     46 H46        -7.2737   -3.4237   59.7077 H       1  ZINC000331626032    0.1700
     47 H47        -8.7119   -4.3288   55.4885 H       1  ZINC000331626032    0.4100
     48 H48       -10.3319   -3.8876   55.4296 H       1  ZINC000331626032    0.4100
     49 H49       -11.2237   -0.0998   59.3149 H       1  ZINC000331626032    0.0400
     50 H50       -10.6793   -0.6808   60.9067 H       1  ZINC000331626032    0.0800
@<TRIPOS>BOND
     1     1     2    1
     2     1    28    1
     3     1    29    1
     4     1    30    1
     5     2     3    1
     6     2     4    1
     7     2    14    1
     8     4     5    2
     9     4     6   am
    10     6     7    1
    11     6     8    1
    12     7    31    1
    13     7    32    1
    14     7    33    1
    15     8    13   ar
    16     8     9   ar
    17     9    10   ar
    18     9    34    1
    19    10    11   ar
    20    10    35    1
    21    11    12   ar
    22    11    36    1
    23    12    13   ar
    24    12    37    1
    25    13    38    1
    26    14    27    1
    27    14    15    1
    28    15    16    1
    29    15    39    1
    30    15    40    1
    31    16    17    1
    32    16    41    1
    33    16    42    1
    34    17    18    1
    35    17    43    1
    36    17    44    1
    37    18    19    1
    38    18    20    1
    39    18    27    1
    40    20    26   ar
    41    20    21   ar
    42    21    22   ar
    43    21    45    1
    44    22    23   ar
    45    22    46    1
    46    23    24   ar
    47    24    25    1
    48    24    26   ar
    49    25    47    1
    50    25    48    1
    51    27    49    1
    52    27    50    1
@<TRIPOS>SUBSTRUCTURE
     1 ZINC000331626032        1 TEMP              0 ****  ****    0 ROOT


##########                                Name:    ZINC001231746020
##########                DOCK_Rotatable_Bonds:                   3
##########                         Heavy_Atoms:                  19
##########                    Molecular_Weight:             348.667
##########                DOCK_Rotatable_Bonds:                   3
##########                       Formal_Charge:          -0.0399997
##########                     HBond_Acceptors:                   4
##########                        HBond_Donors:                   2
##########                         Heavy_Atoms:                  19
##########                          Grid_Score:          -25.049093
##########                     Grid_vdw_energy:          -23.726208
##########                      Grid_es_energy:           -1.322886
##########           Internal_energy_repulsive:           12.361797

@<TRIPOS>MOLECULE
ZINC001231746020
 38 39 1 0 0
SMALL
USER_CHARGES


@<TRIPOS>ATOM
      1 C1        -12.1067    4.0009   62.1190 C.3     1  ZINC001231746020   -0.1500
      2 C2        -11.2799    2.7302   62.3246 C.3     1  ZINC001231746020   -0.0900
      3 H3        -11.9303    1.8575   62.2646 H       1  ZINC001231746020    0.0800
      4 C4        -10.2178    2.6418   61.2615 C.3     1  ZINC001231746020   -0.1400
      5 C5         -9.8600    1.1969   60.8696 C.3     1  ZINC001231746020   -0.0100
      6 N6         -9.7400    0.2832   62.0260 N.4     1  ZINC001231746020   -0.3800
      7 H7        -10.6640    0.0135   62.3286 H       1  ZINC001231746020    0.4100
      8 C8         -9.0033   -0.9182   61.6116 C.3     1  ZINC001231746020    0.0700
      9 C9         -9.7809   -1.6401   60.5414 C.ar    1  ZINC001231746020   -0.3100
     10 C10        -9.1107   -2.3136   59.5373 C.ar    1  ZINC001231746020   -0.0300
     11 C11        -9.8216   -2.9772   58.5543 C.ar    1  ZINC001231746020   -0.1600
     12 Cl12       -8.9793   -3.8227   57.2936 Cl      1  ZINC001231746020   -0.0800
     13 C13       -11.2092   -2.9662   58.5764 C.ar    1  ZINC001231746020    0.3100
     14 O14       -11.9108   -3.6182   57.6116 O.3     1  ZINC001231746020   -0.6300
     15 C15       -11.8792   -2.2889   59.5855 C.ar    1  ZINC001231746020   -0.2100
     16 Br16      -13.7699   -2.2710   59.6197 Br      1  ZINC001231746020   -0.0600
     17 C17       -11.1634   -1.6323   60.5689 C.ar    1  ZINC001231746020   -0.0200
     18 C18        -9.0475    0.9009   63.1309 C.3     1  ZINC001231746020   -0.0200
     19 C19       -10.1046    1.4579   64.0981 C.3     1  ZINC001231746020   -0.1800
     20 C20       -10.5949    2.7757   63.7135 C.3     1  ZINC001231746020    0.1000
     21 H21       -11.3142    3.1207   64.4562 H       1  ZINC001231746020    0.0700
     22 O22        -9.4970    3.6892   63.6654 O.3     1  ZINC001231746020   -0.5600
     23 H23       -12.5786    3.9724   61.1368 H       1  ZINC001231746020    0.0600
     24 H24       -11.4555    4.8726   62.1839 H       1  ZINC001231746020    0.0700
     25 H25       -12.8751    4.0632   62.8896 H       1  ZINC001231746020    0.0600
     26 H26       -10.5683    3.1677   60.3735 H       1  ZINC001231746020    0.1000
     27 H27        -9.3172    3.1358   61.6259 H       1  ZINC001231746020    0.1000
     28 H28       -10.6325    0.8150   60.2021 H       1  ZINC001231746020    0.1200
     29 H29        -8.9118    1.2058   60.3322 H       1  ZINC001231746020    0.1200
     30 H30        -8.0280   -0.6293   61.2197 H       1  ZINC001231746020    0.1200
     31 H31        -8.8695   -1.5764   62.4700 H       1  ZINC001231746020    0.1200
     32 H32        -8.0308   -2.3217   59.5207 H       1  ZINC001231746020    0.1100
     33 H33       -11.6843   -1.1093   61.3573 H       1  ZINC001231746020    0.1100
     34 H34        -8.4338    0.1594   63.6423 H       1  ZINC001231746020    0.1400
     35 H35        -8.4178    1.7116   62.7647 H       1  ZINC001231746020    0.1300
     36 H36       -10.9469    0.7670   64.1324 H       1  ZINC001231746020    0.0900
     37 H37        -9.6672    1.5257   65.0942 H       1  ZINC001231746020    0.1100
     38 H38        -9.7507    4.5984   63.4558 H       1  ZINC001231746020    0.3900
@<TRIPOS>BOND
     1     1     2    1
     2     1    23    1
     3     1    24    1
     4     1    25    1
     5     2     3    1
     6     2    20    1
     7     2     4    1
     8     4     5    1
     9     4    26    1
    10     4    27    1
    11     5     6    1
    12     5    28    1
    13     5    29    1
    14     6     7    1
    15     6     8    1
    16     6    18    1
    17     8     9    1
    18     8    30    1
    19     8    31    1
    20     9    17   ar
    21     9    10   ar
    22    10    11   ar
    23    10    32    1
    24    11    12    1
    25    11    13   ar
    26    13    14    1
    27    13    15   ar
    28    15    16    1
    29    15    17   ar
    30    17    33    1
    31    18    19    1
    32    18    34    1
    33    18    35    1
    34    19    20    1
    35    19    36    1
    36    19    37    1
    37    20    21    1
    38    20    22    1
    39    22    38    1
@<TRIPOS>SUBSTRUCTURE
     1 ZINC001231746020        1 TEMP              0 ****  ****    0 ROOT


##########                                Name:    ZINC000188380122
##########                DOCK_Rotatable_Bonds:                   6
##########                         Heavy_Atoms:                  27
##########                    Molecular_Weight:             396.433
##########                DOCK_Rotatable_Bonds:                   6
##########                       Formal_Charge:           0.0299998
##########                     HBond_Acceptors:                   8
##########                        HBond_Donors:                   1
##########                         Heavy_Atoms:                  27
##########                          Grid_Score:          -25.026518
##########                     Grid_vdw_energy:          -23.270264
##########                      Grid_es_energy:           -1.756254
##########           Internal_energy_repulsive:           12.604826

@<TRIPOS>MOLECULE
ZINC000188380122
 46 49 1 0 0
SMALL
USER_CHARGES


@<TRIPOS>ATOM
      1 O1        -12.7176    4.2182   62.5458 O.2     1  ZINC000188380122   -0.5200
      2 C2        -11.8540    3.3782   62.6861 C.2     1  ZINC000188380122    0.5200
      3 C3        -12.2326    1.9529   62.9962 C.3     1  ZINC000188380122   -0.0700
      4 C4        -11.1433    1.0282   62.5172 C.2     1  ZINC000188380122    0.0900
      5 C5         -9.9472    0.9713   63.1126 C.2     1  ZINC000188380122   -0.2400
      6 S6         -8.9647   -0.2198   62.2627 S.3     1  ZINC000188380122    0.1000
      7 C7        -10.3032   -0.5295   61.1597 C.2     1  ZINC000188380122    0.1100
      8 C8        -10.2863   -1.4947   60.0397 C.ar    1  ZINC000188380122   -0.0200
      9 C9         -9.2039   -2.3600   59.8768 C.ar    1  ZINC000188380122   -0.0400
     10 C10        -9.1945   -3.2587   58.8297 C.ar    1  ZINC000188380122   -0.1200
     11 C11       -10.2549   -3.3027   57.9424 C.ar    1  ZINC000188380122   -0.0600
     12 C12       -11.3313   -2.4472   58.0985 C.ar    1  ZINC000188380122   -0.1800
     13 C13       -12.4825   -2.5024   57.1274 C.3     1  ZINC000188380122    0.5100
     14 F14       -13.1794   -1.2898   57.1608 F       1  ZINC000188380122   -0.1700
     15 F15       -11.9928   -2.7236   55.8357 F       1  ZINC000188380122   -0.1700
     16 F16       -13.3439   -3.5454   57.4844 F       1  ZINC000188380122   -0.1700
     17 C17       -11.3556   -1.5480   59.1443 C.ar    1  ZINC000188380122   -0.0500
     18 N18       -11.3115    0.2243   61.4927 N.2     1  ZINC000188380122   -0.4300
     19 N19       -10.5560    3.7183   62.5591 N.am    1  ZINC000188380122   -0.7200
     20 C20       -10.1880    5.1038   62.2576 C.3     1  ZINC000188380122    0.1300
     21 H21       -11.0469    5.7245   62.0024 H       1  ZINC000188380122    0.1200
     22 C22        -9.0187    5.2300   61.2649 C.3     1  ZINC000188380122   -0.1800
     23 C23        -8.5314    6.3967   62.1322 C.3     1  ZINC000188380122    0.0900
     24 H24        -9.0009    7.3372   61.8440 H       1  ZINC000188380122    0.1200
     25 O25        -7.1362    6.5295   62.2376 O.3     1  ZINC000188380122   -0.3700
     26 C26        -6.3929    5.5459   62.9333 C.3     1  ZINC000188380122    0.0700
     27 C27        -7.0358    5.2303   64.2830 C.3     1  ZINC000188380122   -0.1600
     28 C28        -8.4449    4.6820   64.0373 C.3     1  ZINC000188380122   -0.1100
     29 C29        -9.2564    5.7393   63.3096 C.3     1  ZINC000188380122   -0.1500
     30 H30        -9.7515    6.4415   63.9805 H       1  ZINC000188380122    0.0900
     31 H31       -12.3604    1.8368   64.0725 H       1  ZINC000188380122    0.1100
     32 H32       -13.1664    1.7067   62.4908 H       1  ZINC000188380122    0.1100
     33 H33        -9.6367    1.5549   63.9666 H       1  ZINC000188380122    0.1800
     34 H34        -8.3751   -2.3261   60.5683 H       1  ZINC000188380122    0.1500
     35 H35        -8.3574   -3.9291   58.7024 H       1  ZINC000188380122    0.1400
     36 H36       -10.2424   -4.0074   57.1242 H       1  ZINC000188380122    0.1500
     37 H37       -12.1964   -0.8810   59.2651 H       1  ZINC000188380122    0.1400
     38 H38        -9.8656    3.0456   62.6674 H       1  ZINC000188380122    0.4000
     39 H39        -8.3469    4.3715   61.2676 H       1  ZINC000188380122    0.0900
     40 H40        -9.3252    5.5275   60.2621 H       1  ZINC000188380122    0.0800
     41 H41        -6.3530    4.6364   62.3340 H       1  ZINC000188380122    0.0500
     42 H42        -5.3790    5.9115   63.0961 H       1  ZINC000188380122    0.1000
     43 H43        -6.4389    4.4836   64.8069 H       1  ZINC000188380122    0.0800
     44 H44        -7.0961    6.1395   64.8812 H       1  ZINC000188380122    0.0800
     45 H45        -8.3851    3.7817   63.4258 H       1  ZINC000188380122    0.0700
     46 H46        -8.9174    4.4478   64.9911 H       1  ZINC000188380122    0.0800
@<TRIPOS>BOND
     1     1     2    2
     2     2     3    1
     3     2    19   am
     4     3     4    1
     5     3    31    1
     6     3    32    1
     7     4    18    1
     8     4     5    2
     9     5     6    1
    10     5    33    1
    11     6     7    1
    12     7     8    1
    13     7    18    2
    14     8    17   ar
    15     8     9   ar
    16     9    10   ar
    17     9    34    1
    18    10    11   ar
    19    10    35    1
    20    11    12   ar
    21    11    36    1
    22    12    13    1
    23    12    17   ar
    24    13    14    1
    25    13    15    1
    26    13    16    1
    27    17    37    1
    28    19    20    1
    29    19    38    1
    30    20    21    1
    31    20    29    1
    32    20    22    1
    33    22    23    1
    34    22    39    1
    35    22    40    1
    36    23    24    1
    37    23    29    1
    38    23    25    1
    39    25    26    1
    40    26    27    1
    41    26    41    1
    42    26    42    1
    43    27    28    1
    44    27    43    1
    45    27    44    1
    46    28    29    1
    47    28    45    1
    48    28    46    1
    49    29    30    1
@<TRIPOS>SUBSTRUCTURE
     1 ZINC000188380122        1 TEMP              0 ****  ****    0 ROOT


##########                                Name:    ZINC000866717058
##########                DOCK_Rotatable_Bonds:                   7
##########                         Heavy_Atoms:                  25
##########                    Molecular_Weight:             380.388
##########                DOCK_Rotatable_Bonds:                   7
##########                       Formal_Charge:                0.04
##########                     HBond_Acceptors:                  10
##########                        HBond_Donors:                   1
##########                         Heavy_Atoms:                  25
##########                          Grid_Score:          -25.010126
##########                     Grid_vdw_energy:          -25.841528
##########                      Grid_es_energy:            0.831402
##########           Internal_energy_repulsive:           13.589910

@<TRIPOS>MOLECULE
ZINC000866717058
 44 45 1 0 0
SMALL
USER_CHARGES


@<TRIPOS>ATOM
      1 C1        -12.0886    2.6098   62.5155 C.3     1  ZINC000866717058   -0.1100
      2 C2        -10.8728    1.8594   62.9945 C.ar    1  ZINC000866717058    0.2400
      3 N3        -10.4113    2.0729   64.2087 N.ar    1  ZINC000866717058   -0.5500
      4 C4         -9.3462    1.4368   64.6723 C.ar    1  ZINC000866717058    0.3500
      5 O5         -8.9110    1.6919   65.9300 O.3     1  ZINC000866717058   -0.2800
      6 C6         -8.0304    2.8046   66.0985 C.3     1  ZINC000866717058    0.0500
      7 H7         -7.9227    3.3298   65.1495 H       1  ZINC000866717058    0.1300
      8 C8         -8.6081    3.7580   67.1465 C.3     1  ZINC000866717058   -0.1700
      9 C9         -6.6609    2.3052   66.5632 C.3     1  ZINC000866717058    0.4600
     10 F10        -5.6977    3.2897   66.3179 F       1  ZINC000866717058   -0.1700
     11 F11        -6.7060    2.0282   67.9338 F       1  ZINC000866717058   -0.1700
     12 F12        -6.3267    1.1410   65.8629 F       1  ZINC000866717058   -0.1700
     13 C13        -8.6680    0.5102   63.8869 C.ar    1  ZINC000866717058   -0.1900
     14 C14        -9.1161    0.2542   62.6071 C.ar    1  ZINC000866717058    0.0000
     15 C15       -10.2500    0.9405   62.1486 C.ar    1  ZINC000866717058   -0.2300
     16 C16       -10.7703    0.7028   60.7878 C.2     1  ZINC000866717058    0.5800
     17 O17       -10.2144    1.2021   59.8286 O.2     1  ZINC000866717058   -0.5200
     18 N18       -11.8616   -0.0676   60.6085 N.am    1  ZINC000866717058   -0.7400
     19 C19       -12.3789   -0.3020   59.2581 C.3     1  ZINC000866717058    0.1400
     20 C20       -12.3085   -1.7964   58.9375 C.3     1  ZINC000866717058   -0.5700
     21 H21       -12.9766   -2.3618   59.5871 H       1  ZINC000866717058    0.1500
     22 C22       -12.6424   -2.0554   57.4456 C.3     1  ZINC000866717058   -0.1100
     23 C23       -12.0834   -3.4480   57.1048 C.3     1  ZINC000866717058   -0.1200
     24 C24       -10.6414   -3.5467   57.6407 C.3     1  ZINC000866717058   -0.5900
     25 S25       -10.5881   -2.4120   59.0795 S.o2    1  ZINC000866717058    2.3700
     26 O26        -9.6867   -1.3479   58.8068 O.2     1  ZINC000866717058   -0.9200
     27 O27       -10.4502   -3.1710   60.2729 O.2     1  ZINC000866717058   -0.9300
     28 H28       -12.9755    1.9917   62.6552 H       1  ZINC000866717058    0.0900
     29 H29       -12.1948    3.5320   63.0868 H       1  ZINC000866717058    0.0700
     30 H30       -11.9751    2.8485   61.4580 H       1  ZINC000866717058    0.1100
     31 H31        -7.9363    4.6067   67.2751 H       1  ZINC000866717058    0.0900
     32 H32        -9.5837    4.1137   66.8154 H       1  ZINC000866717058    0.0900
     33 H33        -8.7156    3.2328   68.0955 H       1  ZINC000866717058    0.0800
     34 H34        -7.8002   -0.0029   64.2743 H       1  ZINC000866717058    0.1600
     35 H35        -8.6085   -0.4598   61.9755 H       1  ZINC000866717058    0.1500
     36 H36       -12.3044   -0.4668   61.3737 H       1  ZINC000866717058    0.4000
     37 H37       -13.4145    0.0331   59.2025 H       1  ZINC000866717058    0.1000
     38 H38       -11.7782    0.2528   58.5374 H       1  ZINC000866717058    0.1000
     39 H39       -13.7220   -2.0397   57.2965 H       1  ZINC000866717058    0.1100
     40 H40       -12.1677   -1.2994   56.8202 H       1  ZINC000866717058    0.0900
     41 H41       -12.7012   -4.2151   57.5718 H       1  ZINC000866717058    0.0900
     42 H42       -12.0831   -3.5883   56.0239 H       1  ZINC000866717058    0.1000
     43 H43       -10.4243   -4.5667   57.9580 H       1  ZINC000866717058    0.1400
     44 H44        -9.9313   -3.2276   56.8777 H       1  ZINC000866717058    0.1400
@<TRIPOS>BOND
     1     1     2    1
     2     1    28    1
     3     1    29    1
     4     1    30    1
     5     2    15   ar
     6     2     3   ar
     7     3     4   ar
     8     4     5    1
     9     4    13   ar
    10     5     6    1
    11     6     7    1
    12     6     8    1
    13     6     9    1
    14     8    31    1
    15     8    32    1
    16     8    33    1
    17     9    10    1
    18     9    11    1
    19     9    12    1
    20    13    14   ar
    21    13    34    1
    22    14    15   ar
    23    14    35    1
    24    15    16    1
    25    16    17    2
    26    16    18   am
    27    18    19    1
    28    18    36    1
    29    19    20    1
    30    19    37    1
    31    19    38    1
    32    20    21    1
    33    20    25    1
    34    20    22    1
    35    22    23    1
    36    22    39    1
    37    22    40    1
    38    23    24    1
    39    23    41    1
    40    23    42    1
    41    24    25    1
    42    24    43    1
    43    24    44    1
    44    25    26    2
    45    25    27    2
@<TRIPOS>SUBSTRUCTURE
     1 ZINC000866717058        1 TEMP              0 ****  ****    0 ROOT


##########                                Name:    ZINC000676204775
##########                DOCK_Rotatable_Bonds:                   4
##########                         Heavy_Atoms:                  25
##########                    Molecular_Weight:             359.452
##########                DOCK_Rotatable_Bonds:                   4
##########                       Formal_Charge:          0.00999978
##########                     HBond_Acceptors:                   8
##########                        HBond_Donors:                   2
##########                         Heavy_Atoms:                  25
##########                          Grid_Score:          -24.994566
##########                     Grid_vdw_energy:          -24.246853
##########                      Grid_es_energy:           -0.747714
##########           Internal_energy_repulsive:            5.432624

@<TRIPOS>MOLECULE
ZINC000676204775
 46 49 1 0 0
SMALL
USER_CHARGES


@<TRIPOS>ATOM
      1 C1          1.1420   -0.2633   51.3432 C.3     1  ZINC000676204775   -0.1600
      2 C2          1.3332    1.2128   51.6976 C.3     1  ZINC000676204775    0.1600
      3 C3          1.8716    1.9642   50.4784 C.3     1  ZINC000676204775   -0.1600
      4 N4          0.0473    1.7894   52.0980 N.pl3   1  ZINC000676204775   -0.3900
      5 N5         -1.1890    1.5020   51.5104 N.2     1  ZINC000676204775   -0.2500
      6 C6         -2.1326    2.1797   52.0992 C.2     1  ZINC000676204775    0.0900
      7 C7         -1.5160    2.9803   53.1520 C.ar    1  ZINC000676204775   -0.2100
      8 C8         -2.0066    3.8867   54.0982 C.ar    1  ZINC000676204775    0.0800
      9 C9         -1.1435    4.4864   54.9692 C.ar    1  ZINC000676204775   -0.7200
     10 S10        -1.7600    5.6278   56.1617 S.o2    1  ZINC000676204775    2.6900
     11 O11        -0.6497    6.4095   56.5803 O.2     1  ZINC000676204775   -0.9300
     12 O12        -2.9409    6.1898   55.6061 O.2     1  ZINC000676204775   -0.9600
     13 N13        -2.2368    4.7482   57.4813 N.am    1  ZINC000676204775   -1.1100
     14 C14        -1.2648    3.9211   58.2005 C.3     1  ZINC000676204775    0.2400
     15 H15        -0.3577    3.8179   57.6048 H       1  ZINC000676204775    0.1000
     16 C16        -1.8651    2.5363   58.4731 C.3     1  ZINC000676204775   -0.1200
     17 C17        -0.9556    1.7571   59.4257 C.3     1  ZINC000676204775   -0.1200
     18 C18        -1.0502    2.3538   60.8356 C.3     1  ZINC000676204775   -0.0400
     19 C19        -0.8396    3.8442   60.7313 C.2     1  ZINC000676204775   -0.2300
     20 C20        -0.5391    4.7153   61.7122 C.2     1  ZINC000676204775    0.0600
     21 N21        -0.4431    5.9429   61.1541 N.pl3   1  ZINC000676204775   -0.4800
     22 N22        -0.6955    5.8151   59.7798 N.2     1  ZINC000676204775   -0.2400
     23 C23        -0.9331    4.5618   59.5264 C.2     1  ZINC000676204775    0.0500
     24 C24         0.2162    4.2052   54.9248 C.ar    1  ZINC000676204775    0.0100
     25 C25         0.7191    3.3237   54.0100 C.ar    1  ZINC000676204775   -0.1500
     26 C26        -0.1378    2.6923   53.1122 C.ar    1  ZINC000676204775    0.1700
     27 H27         0.7584   -0.7987   52.2118 H       1  ZINC000676204775    0.0600
     28 H28         0.4327   -0.3504   50.5203 H       1  ZINC000676204775    0.0700
     29 H29         2.0987   -0.6923   51.0453 H       1  ZINC000676204775    0.0800
     30 H30         2.0425    1.2999   52.5206 H       1  ZINC000676204775    0.1000
     31 H31         1.1622    1.8771   49.6554 H       1  ZINC000676204775    0.0700
     32 H32         2.0078    3.0159   50.7308 H       1  ZINC000676204775    0.0600
     33 H33         2.8283    1.5353   50.1805 H       1  ZINC000676204775    0.0800
     34 H34        -3.1837    2.1539   51.8523 H       1  ZINC000676204775    0.2000
     35 H35        -3.0622    4.1108   54.1389 H       1  ZINC000676204775    0.1500
     36 H36        -3.1598    4.7807   57.7781 H       1  ZINC000676204775    0.4200
     37 H37        -2.8502    2.6509   58.9251 H       1  ZINC000676204775    0.0800
     38 H38        -1.9591    1.9906   57.5342 H       1  ZINC000676204775    0.0800
     39 H39        -1.2678    0.7131   59.4523 H       1  ZINC000676204775    0.0700
     40 H40         0.0745    1.8179   59.0746 H       1  ZINC000676204775    0.0700
     41 H41        -2.0350    2.1501   61.2559 H       1  ZINC000676204775    0.0700
     42 H42        -0.2805    1.9174   61.4720 H       1  ZINC000676204775    0.0700
     43 H43        -0.3999    4.4767   62.7563 H       1  ZINC000676204775    0.1800
     44 H44        -0.2360    6.7671   61.6217 H       1  ZINC000676204775    0.4400
     45 H45         0.8841    4.6897   55.6217 H       1  ZINC000676204775    0.1500
     46 H46         1.7783    3.1140   53.9861 H       1  ZINC000676204775    0.1300
@<TRIPOS>BOND
     1     1     2    1
     2     1    27    1
     3     1    28    1
     4     1    29    1
     5     2     3    1
     6     2     4    1
     7     2    30    1
     8     3    31    1
     9     3    32    1
    10     3    33    1
    11     4    26    1
    12     4     5    1
    13     5     6    2
    14     6     7    1
    15     6    34    1
    16     7    26   ar
    17     7     8   ar
    18     8     9   ar
    19     8    35    1
    20     9    10    1
    21     9    24   ar
    22    10    11    2
    23    10    12    2
    24    10    13   am
    25    13    14    1
    26    13    36    1
    27    14    15    1
    28    14    23    1
    29    14    16    1
    30    16    17    1
    31    16    37    1
    32    16    38    1
    33    17    18    1
    34    17    39    1
    35    17    40    1
    36    18    19    1
    37    18    41    1
    38    18    42    1
    39    19    23    1
    40    19    20    2
    41    20    21    1
    42    20    43    1
    43    21    22    1
    44    21    44    1
    45    22    23    2
    46    24    25   ar
    47    24    45    1
    48    25    26   ar
    49    25    46    1
@<TRIPOS>SUBSTRUCTURE
     1 ZINC000676204775        1 TEMP              0 ****  ****    0 ROOT


##########                                Name:    ZINC000493443319
##########                DOCK_Rotatable_Bonds:                   6
##########                         Heavy_Atoms:                  25
##########                    Molecular_Weight:             348.399
##########                DOCK_Rotatable_Bonds:                   6
##########                       Formal_Charge:        -3.27826e-07
##########                     HBond_Acceptors:                   7
##########                        HBond_Donors:                   0
##########                         Heavy_Atoms:                  25
##########                          Grid_Score:          -24.966246
##########                     Grid_vdw_energy:          -24.776217
##########                      Grid_es_energy:           -0.190028
##########           Internal_energy_repulsive:           47.152447

@<TRIPOS>MOLECULE
ZINC000493443319
 49 51 1 0 0
SMALL
USER_CHARGES


@<TRIPOS>ATOM
      1 C1        -14.7453   -3.6717   57.1978 C.3     1  <0>        -0.1500
      2 C2        -13.7695   -2.7721   57.9590 C.3     1  <0>         0.0500
      3 O3        -14.2645   -2.5425   59.2796 O.3     1  <0>        -0.3200
      4 C4        -13.6188   -1.6079   60.0272 C.ar    1  <0>         0.1000
      5 C5        -14.3463   -0.6641   60.7371 C.ar    1  <0>        -0.1700
      6 C6        -13.6905    0.2853   61.4963 C.ar    1  <0>        -0.1100
      7 C7        -12.3045    0.2945   61.5493 C.ar    1  <0>         0.0800
      8 O8        -11.6589    1.2294   62.2965 O.3     1  <0>        -0.3000
      9 C9        -11.4290    2.5014   61.6871 C.3     1  <0>         0.1000
     10 C10       -10.4297    2.3438   60.5393 C.3     1  <0>        -0.1800
     11 C11       -12.7485    3.0520   61.1427 C.3     1  <0>        -0.1500
     12 C12       -10.8709    3.4556   62.7115 C.2     1  <0>         0.5100
     13 O13       -11.3863    4.5416   62.8728 O.2     1  <0>        -0.5200
     14 N14        -9.7992    3.1021   63.4483 N.am    1  <0>        -0.6000
     15 C15        -9.2532    4.0295   64.4470 C.3     1  <0>         0.0700
     16 C16        -9.2317    3.3348   65.8181 C.3     1  <0>         0.1300
     17 N17        -8.6723    1.9904   65.6204 N.am    1  <0>        -0.6300
     18 C18        -7.6510    1.4164   66.2584 C.2     1  <0>         0.6500
     19 O19        -7.1272    1.8976   67.2436 O.2     1  <0>        -0.5200
     20 O20        -7.2574    0.2593   65.7095 O.3     1  <0>        -0.3200
     21 C21        -8.1444   -0.0801   64.6026 C.3     1  <0>         0.0500
     22 C22        -9.1863    1.0501   64.6011 C.3     1  <0>         0.0800
     23 H23       -10.1787    0.6805   64.8593 H       1  <0>         0.1100
     24 C24        -9.1760    1.7832   63.2592 C.3     1  <0>         0.1000
     25 C25       -11.5772   -0.6501   60.8406 C.ar    1  <0>        -0.1800
     26 C26       -12.2331   -1.6019   60.0843 C.ar    1  <0>        -0.1100
     27 H27       -14.3678   -3.8469   56.1904 H       1  <0>         0.0800
     28 H28       -14.8443   -4.6237   57.7194 H       1  <0>         0.0700
     29 H29       -15.7192   -3.1854   57.1413 H       1  <0>         0.0700
     30 H30       -12.7956   -3.2584   58.0154 H       1  <0>         0.0600
     31 H31       -13.6706   -1.8202   57.4373 H       1  <0>         0.0600
     32 H32       -15.4255   -0.6713   60.6957 H       1  <0>         0.1400
     33 H33       -14.2568    1.0206   62.0485 H       1  <0>         0.1400
     34 H34       -10.8849    1.7605   59.7389 H       1  <0>         0.0800
     35 H35       -10.1538    3.3278   60.1600 H       1  <0>         0.0900
     36 H36        -9.5385    1.8309   60.9011 H       1  <0>         0.0800
     37 H37       -13.4880    3.0805   61.9429 H       1  <0>         0.0800
     38 H38       -12.5905    4.0595   60.7578 H       1  <0>         0.0900
     39 H39       -13.1070    2.4084   60.3394 H       1  <0>         0.0900
     40 H40        -8.2389    4.3123   64.1657 H       1  <0>         0.0800
     41 H41        -9.8801    4.9197   64.4991 H       1  <0>         0.1300
     42 H42        -8.6054    3.8988   66.5095 H       1  <0>         0.1100
     43 H43       -10.2454    3.2601   66.2117 H       1  <0>         0.0800
     44 H44        -7.5939   -0.0936   63.6620 H       1  <0>         0.1100
     45 H45        -8.6248   -1.0426   64.7792 H       1  <0>         0.1100
     46 H46        -9.7408    1.2113   62.5230 H       1  <0>         0.1100
     47 H47        -8.1488    1.9114   62.9177 H       1  <0>         0.0800
     48 H48       -10.4979   -0.6432   60.8821 H       1  <0>         0.1600
     49 H49       -11.6667   -2.3374   59.5325 H       1  <0>         0.1300
@<TRIPOS>BOND
     1     1     2    1
     2     1    27    1
     3     1    28    1
     4     1    29    1
     5     2     3    1
     6     2    30    1
     7     2    31    1
     8     3     4    1
     9     4    26   ar
    10     4     5   ar
    11     5     6   ar
    12     5    32    1
    13     6     7   ar
    14     6    33    1
    15     7     8    1
    16     7    25   ar
    17     8     9    1
    18     9    10    1
    19     9    11    1
    20     9    12    1
    21    10    34    1
    22    10    35    1
    23    10    36    1
    24    11    37    1
    25    11    38    1
    26    11    39    1
    27    12    13    2
    28    12    14   am
    29    14    24    1
    30    14    15    1
    31    15    16    1
    32    15    40    1
    33    15    41    1
    34    16    17    1
    35    16    42    1
    36    16    43    1
    37    17    22    1
    38    17    18   am
    39    18    19    2
    40    18    20    1
    41    20    21    1
    42    21    22    1
    43    21    44    1
    44    21    45    1
    45    22    23    1
    46    22    24    1
    47    24    46    1
    48    24    47    1
    49    25    26   ar
    50    25    48    1
    51    26    49    1
@<TRIPOS>SUBSTRUCTURE
     1 <0>         1 TEMP              0 ****  ****    0 ROOT


##########                                Name:     oleObject42.pdb
##########                DOCK_Rotatable_Bonds:                   9
##########                         Heavy_Atoms:                  36
##########                    Molecular_Weight:             527.493
##########                DOCK_Rotatable_Bonds:                   9
##########                       Formal_Charge:         9.99384e-05
##########                     HBond_Acceptors:                   8
##########                        HBond_Donors:                   0
##########                         Heavy_Atoms:                  36
##########                          Grid_Score:          -24.957699
##########                     Grid_vdw_energy:          -25.189583
##########                      Grid_es_energy:            0.231885
##########           Internal_energy_repulsive:           47.508644

@<TRIPOS>MOLECULE
oleObject42.pdb
 68 71 1 0 0
SMALL
NO_CHARGES


@<TRIPOS>ATOM
      1 C         -14.6665    4.8434   53.2178 C.ar    1  UNL        -0.0435
      2 C         -14.1236    3.6787   52.6560 C.ar    1  UNL        -0.0559
      3 C         -12.8950    3.1912   53.1402 C.ar    1  UNL        -0.0272
      4 C         -12.2511    3.9033   54.1835 C.ar    1  UNL         0.0699
      5 N         -12.7864    5.0264   54.7166 N.ar    1  UNL        -0.2586
      6 C         -13.9619    5.4844   54.2473 C.ar    1  UNL         0.0272
      7 C         -10.9077    3.4371   54.7701 C.3     1  UNL         0.1101
      8 C          -9.6994    3.7938   53.8826 C.ar    1  UNL         0.0699
      9 C          -9.6144    5.0444   53.2202 C.ar    1  UNL        -0.0272
     10 C          -8.4882    5.3019   52.4158 C.ar    1  UNL        -0.0559
     11 C          -7.4949    4.3195   52.2955 C.ar    1  UNL        -0.0435
     12 C          -7.6610    3.1085   52.9831 C.ar    1  UNL         0.0272
     13 N          -8.7347    2.8526   53.7533 N.ar    1  UNL        -0.2586
     14 C         -10.6970    6.1101   53.3527 C.3     1  UNL        -0.0379
     15 N         -10.7460    3.8057   56.2040 N.am    1  UNL        -0.2902
     16 C         -11.1640    2.9832   57.2510 C.2     1  UNL         0.2180
     17 O         -11.9136    2.0452   57.0346 O.2     1  UNL        -0.2772
     18 C         -10.9295    3.5003   58.6915 C.3     1  UNL         0.0385
     19 C          -9.4840    3.2134   59.1647 C.3     1  UNL        -0.0289
     20 C          -9.2676    1.7255   59.5143 C.3     1  UNL        -0.0010
     21 N         -10.2501    1.2563   60.5152 N.4     1  UNL        -0.3010
     22 C         -11.6598    1.4605   60.1144 C.3     1  UNL        -0.0010
     23 C         -11.9476    2.9270   59.7120 C.3     1  UNL        -0.0289
     24 C          -9.9658   -0.0936   61.0507 C.3     1  UNL         0.0222
     25 C          -9.6567   -1.1487   59.9651 C.3     1  UNL         0.0661
     26 O         -10.4696   -2.3029   60.2291 O.3     1  UNL        -0.3432
     27 C         -11.5463   -2.5582   59.4159 C.ar    1  UNL         0.0937
     28 C         -12.8335   -2.2096   59.8582 C.ar    1  UNL        -0.0288
     29 C         -13.9498   -2.4637   59.0441 C.ar    1  UNL        -0.0408
     30 C         -13.7773   -3.0697   57.7884 C.ar    1  UNL         0.0422
     31 C         -12.4920   -3.4241   57.3455 C.ar    1  UNL        -0.0221
     32 C         -11.3741   -3.1706   58.1582 C.ar    1  UNL         0.0723
     33 CL         -9.7809   -3.6273   57.5844 Cl      1  UNL        -0.0814
     34 CL        -15.1683   -3.3867   56.7738 Cl      1  UNL        -0.0843
     35 C         -10.2639    5.1738   56.4813 C.3     1  UNL         0.0038
     36 C         -12.3042    1.9231   52.5337 C.3     1  UNL        -0.0379
     37 H         -15.6134    5.2407   52.8642 H       1  UNL         0.0639
     38 H         -14.6512    3.1633   51.8584 H       1  UNL         0.0627
     39 H         -14.3491    6.3906   54.7114 H       1  UNL         0.0840
     40 H         -10.9559    2.3453   54.7557 H       1  UNL         0.0643
     41 H          -8.3828    6.2481   51.8926 H       1  UNL         0.0627
     42 H          -6.6150    4.4920   51.6828 H       1  UNL         0.0639
     43 H          -6.9133    2.3193   52.9165 H       1  UNL         0.0840
     44 H         -11.6505    5.7584   52.9397 H       1  UNL         0.0280
     45 H         -10.4273    7.0281   52.8160 H       1  UNL         0.0280
     46 H         -10.8592    6.3838   54.4024 H       1  UNL         0.0280
     47 H         -11.0749    4.5853   58.6982 H       1  UNL         0.0402
     48 H          -9.2741    3.8177   60.0567 H       1  UNL         0.0288
     49 H          -8.7621    3.5217   58.3992 H       1  UNL         0.0288
     50 H          -8.2494    1.6001   59.9044 H       1  UNL         0.0431
     51 H          -9.3496    1.1291   58.5966 H       1  UNL         0.0431
     52 H         -12.3244    1.1888   60.9445 H       1  UNL         0.0431
     53 H         -11.9074    0.8041   59.2719 H       1  UNL         0.0431
     54 H         -11.9150    3.5432   60.6199 H       1  UNL         0.0288
     55 H         -12.9670    3.0123   59.3142 H       1  UNL         0.0288
     56 H         -10.8260   -0.4390   61.6384 H       1  UNL         0.0455
     57 H          -9.1096   -0.0374   61.7351 H       1  UNL         0.0455
     58 H          -8.5952   -1.4229   59.9976 H       1  UNL         0.0586
     59 H          -9.8857   -0.7482   58.9699 H       1  UNL         0.0586
     60 H         -12.9641   -1.7429   60.8303 H       1  UNL         0.0652
     61 H         -14.9444   -2.1923   59.3867 H       1  UNL         0.0639
     62 H         -12.3625   -3.8951   56.3752 H       1  UNL         0.0655
     63 H          -9.5883    5.5135   55.6864 H       1  UNL         0.0433
     64 H          -9.7153    5.1925   57.4315 H       1  UNL         0.0433
     65 H         -11.1176    5.8598   56.5470 H       1  UNL         0.0433
     66 H         -12.9651    1.4953   51.7696 H       1  UNL         0.0280
     67 H         -12.1503    1.1512   53.2975 H       1  UNL         0.0280
     68 H         -11.3397    2.1269   52.0531 H       1  UNL         0.0280
@<TRIPOS>BOND
     1     1     2   ar
     2     1     6   ar
     3     1    37    1
     4     2     3   ar
     5     2    38    1
     6     3     4   ar
     7     3    36    1
     8     4     5   ar
     9     4     7    1
    10     5     6   ar
    11     6    39    1
    12     7     8    1
    13     7    15    1
    14     7    40    1
    15     8     9   ar
    16     8    13   ar
    17     9    10   ar
    18     9    14    1
    19    10    11   ar
    20    10    41    1
    21    11    12   ar
    22    11    42    1
    23    12    13   ar
    24    12    43    1
    25    14    44    1
    26    14    45    1
    27    14    46    1
    28    15    16   am
    29    15    35    1
    30    16    17    2
    31    16    18    1
    32    18    19    1
    33    18    23    1
    34    18    47    1
    35    19    20    1
    36    19    48    1
    37    19    49    1
    38    20    21    1
    39    20    50    1
    40    20    51    1
    41    21    22    1
    42    21    24    1
    43    22    23    1
    44    22    52    1
    45    22    53    1
    46    23    54    1
    47    23    55    1
    48    24    25    1
    49    24    56    1
    50    24    57    1
    51    25    26    1
    52    25    58    1
    53    25    59    1
    54    26    27    1
    55    27    28   ar
    56    27    32   ar
    57    28    29   ar
    58    28    60    1
    59    29    30   ar
    60    29    61    1
    61    30    31   ar
    62    30    34    1
    63    31    32   ar
    64    31    62    1
    65    32    33    1
    66    35    63    1
    67    35    64    1
    68    35    65    1
    69    36    66    1
    70    36    67    1
    71    36    68    1
@<TRIPOS>SUBSTRUCTURE
     1 UNL         1 TEMP              0 ****  ****    0 ROOT


##########                                Name:    ZINC000496437542
##########                DOCK_Rotatable_Bonds:                   7
##########                         Heavy_Atoms:                  24
##########                    Molecular_Weight:             338.447
##########                DOCK_Rotatable_Bonds:                   7
##########                       Formal_Charge:           0.0400002
##########                     HBond_Acceptors:                   6
##########                        HBond_Donors:                   1
##########                         Heavy_Atoms:                  24
##########                          Grid_Score:          -24.947519
##########                     Grid_vdw_energy:          -24.198570
##########                      Grid_es_energy:           -0.748949
##########           Internal_energy_repulsive:           36.293522

@<TRIPOS>MOLECULE
ZINC000496437542
 54 55 1 0 0
SMALL
USER_CHARGES


@<TRIPOS>ATOM
      1 C1        -14.6720   -3.3887   56.9344 C.3     1  ZINC000496437542   -0.1800
      2 C2        -14.0236   -2.0038   56.8823 C.3     1  ZINC000496437542    0.1400
      3 C3        -13.3709   -1.7974   55.5140 C.3     1  ZINC000496437542   -0.1800
      4 C4        -15.0924   -0.9317   57.1044 C.3     1  ZINC000496437542   -0.1400
      5 O5        -13.0137   -1.9028   57.9206 O.3     1  ZINC000496437542   -0.3600
      6 C6        -12.0074   -2.7966   57.8835 C.2     1  ZINC000496437542    0.6600
      7 O7        -11.9496   -3.6092   56.9820 O.2     1  ZINC000496437542   -0.5600
      8 N8        -11.0644   -2.7900   58.8463 N.am    1  ZINC000496437542   -0.6000
      9 C9         -9.9554   -3.7569   58.8269 C.3     1  ZINC000496437542    0.0800
     10 C10        -8.6398   -2.9872   58.9905 C.3     1  ZINC000496437542    0.0500
     11 O11        -8.7275   -2.1447   60.1422 O.3     1  ZINC000496437542   -0.3700
     12 C12        -9.7410   -1.1401   60.0566 C.3     1  ZINC000496437542    0.0700
     13 H13        -9.5680   -0.5225   59.1752 H       1  ZINC000496437542    0.0700
     14 C14        -9.6994   -0.2641   61.3103 C.3     1  ZINC000496437542    0.1300
     15 N15        -9.6914    1.1477   60.9196 N.am    1  ZINC000496437542   -0.7200
     16 C16       -10.8501    1.8316   60.8401 C.2     1  ZINC000496437542    0.5600
     17 O17       -11.9022    1.2769   61.0940 O.2     1  ZINC000496437542   -0.5400
     18 C18       -10.8423    3.2489   60.4460 C.2     1  ZINC000496437542   -0.1900
     19 C19       -10.1717    4.1243   61.1633 C.2     1  ZINC000496437542   -0.0600
     20 C20       -10.1572    5.5856   60.7670 C.3     1  ZINC000496437542   -0.1000
     21 C21        -9.3037    5.7403   59.5063 C.3     1  ZINC000496437542   -0.1100
     22 C22       -10.1313    5.4843   58.2600 C.3     1  ZINC000496437542   -0.1200
     23 C23       -10.5996    4.0475   58.1190 C.3     1  ZINC000496437542   -0.1200
     24 C24       -11.6011    3.6924   59.2132 C.3     1  ZINC000496437542   -0.0800
     25 C25       -11.1098   -1.8116   59.9446 C.3     1  ZINC000496437542    0.1000
     26 H26       -13.9106   -4.1525   56.7761 H       1  ZINC000496437542    0.0900
     27 H27       -15.1370   -3.5356   57.9092 H       1  ZINC000496437542    0.0600
     28 H28       -15.4302   -3.4645   56.1550 H       1  ZINC000496437542    0.0700
     29 H29       -14.1290   -1.8732   54.7346 H       1  ZINC000496437542    0.0700
     30 H30       -12.9091   -0.8107   55.4769 H       1  ZINC000496437542    0.0600
     31 H31       -12.6095   -2.5612   55.3558 H       1  ZINC000496437542    0.0900
     32 H32       -15.5574   -1.0787   58.0792 H       1  ZINC000496437542    0.0700
     33 H33       -14.6305    0.0549   57.0673 H       1  ZINC000496437542    0.0700
     34 H34       -15.8506   -1.0075   56.3250 H       1  ZINC000496437542    0.0800
     35 H35       -10.0711   -4.4647   59.6478 H       1  ZINC000496437542    0.0800
     36 H36        -9.9517   -4.2925   57.8775 H       1  ZINC000496437542    0.1000
     37 H37        -7.8185   -3.6926   59.1173 H       1  ZINC000496437542    0.1100
     38 H38        -8.4628   -2.3764   58.1053 H       1  ZINC000496437542    0.0600
     39 H39       -10.5773   -0.4663   61.9241 H       1  ZINC000496437542    0.0900
     40 H40        -8.7980   -0.4885   61.8806 H       1  ZINC000496437542    0.0800
     41 H41        -8.8522    1.5905   60.7183 H       1  ZINC000496437542    0.4000
     42 H42        -9.6293    3.7994   62.0389 H       1  ZINC000496437542    0.1300
     43 H43       -11.1747    5.9197   60.5636 H       1  ZINC000496437542    0.0800
     44 H44        -9.7288    6.1795   61.5743 H       1  ZINC000496437542    0.0800
     45 H45        -8.9012    6.7525   59.4678 H       1  ZINC000496437542    0.0700
     46 H46        -8.4792    5.0283   59.5417 H       1  ZINC000496437542    0.0700
     47 H47       -11.0059    6.1344   58.2837 H       1  ZINC000496437542    0.0600
     48 H48        -9.5333    5.7426   57.3862 H       1  ZINC000496437542    0.0600
     49 H49       -11.0711    3.9178   57.1448 H       1  ZINC000496437542    0.0700
     50 H50        -9.7400    3.3813   58.1920 H       1  ZINC000496437542    0.0600
     51 H51       -12.2462    2.8834   58.8704 H       1  ZINC000496437542    0.0700
     52 H52       -12.2042    4.5675   59.4553 H       1  ZINC000496437542    0.0800
     53 H53       -11.8716   -1.0599   59.7373 H       1  ZINC000496437542    0.1100
     54 H54       -11.3442   -2.3251   60.8769 H       1  ZINC000496437542    0.0900
@<TRIPOS>BOND
     1     1     2    1
     2     1    26    1
     3     1    27    1
     4     1    28    1
     5     2     3    1
     6     2     4    1
     7     2     5    1
     8     3    29    1
     9     3    30    1
    10     3    31    1
    11     4    32    1
    12     4    33    1
    13     4    34    1
    14     5     6    1
    15     6     7    2
    16     6     8   am
    17     8    25    1
    18     8     9    1
    19     9    10    1
    20     9    35    1
    21     9    36    1
    22    10    11    1
    23    10    37    1
    24    10    38    1
    25    11    12    1
    26    12    13    1
    27    12    14    1
    28    12    25    1
    29    14    15    1
    30    14    39    1
    31    14    40    1
    32    15    16   am
    33    15    41    1
    34    16    17    2
    35    16    18    1
    36    18    24    1
    37    18    19    2
    38    19    20    1
    39    19    42    1
    40    20    21    1
    41    20    43    1
    42    20    44    1
    43    21    22    1
    44    21    45    1
    45    21    46    1
    46    22    23    1
    47    22    47    1
    48    22    48    1
    49    23    24    1
    50    23    49    1
    51    23    50    1
    52    24    51    1
    53    24    52    1
    54    25    53    1
    55    25    54    1
@<TRIPOS>SUBSTRUCTURE
     1 ZINC000496437542        1 TEMP              0 ****  ****    0 ROOT


##########                                Name:    ZINC000828026236
##########                DOCK_Rotatable_Bonds:                   1
##########                         Heavy_Atoms:                  19
##########                    Molecular_Weight:             383.045
##########                DOCK_Rotatable_Bonds:                   1
##########                       Formal_Charge:                   0
##########                     HBond_Acceptors:                   5
##########                        HBond_Donors:                   0
##########                         Heavy_Atoms:                  19
##########                          Grid_Score:          -24.924671
##########                     Grid_vdw_energy:          -24.229284
##########                      Grid_es_energy:           -0.695387
##########           Internal_energy_repulsive:            4.920422

@<TRIPOS>MOLECULE
ZINC000828026236
 28 30 1 0 0
SMALL
USER_CHARGES


@<TRIPOS>ATOM
      1 N1        -13.5475    0.4759   61.6330 N.1     1  ZINC000828026236   -0.3800
      2 C2        -12.7132   -0.1151   61.1379 C.1     1  ZINC000828026236    0.2600
      3 C3        -11.6614   -0.8600   60.5138 C.ar    1  ZINC000828026236   -0.0500
      4 C4        -11.9206   -1.6564   59.3928 C.ar    1  ZINC000828026236    0.0100
      5 C5        -10.8690   -2.3571   58.8263 C.ar    1  ZINC000828026236   -0.1600
      6 Br6       -11.1587   -3.4490   57.3099 Br      1  ZINC000828026236   -0.0100
      7 C7         -9.6045   -2.2516   59.3782 C.ar    1  ZINC000828026236    0.1800
      8 N8         -9.3811   -1.4949   60.4356 N.ar    1  ZINC000828026236   -0.5000
      9 C9        -10.3485   -0.8000   61.0125 C.ar    1  ZINC000828026236    0.3600
     10 N10       -10.0681   -0.0190   62.1207 N.3     1  ZINC000828026236   -0.4900
     11 C11        -9.9783    1.4017   61.7548 C.3     1  ZINC000828026236    0.0500
     12 C12       -10.0406    2.2658   63.0207 C.3     1  ZINC000828026236    0.1100
     13 N13        -9.0743    1.7353   63.9859 N.pl3   1  ZINC000828026236   -0.4400
     14 C14        -8.5675    2.3332   65.0979 C.2     1  ZINC000828026236   -0.0300
     15 Br15       -8.9783    4.0653   65.7359 Br      1  ZINC000828026236    0.0200
     16 C16        -7.7140    1.4489   65.6573 C.2     1  ZINC000828026236    0.0300
     17 N17        -7.7062    0.3396   64.8988 N.2     1  ZINC000828026236   -0.4700
     18 C18        -8.5175    0.5007   63.8976 C.2     1  ZINC000828026236    0.2300
     19 C19        -8.8378   -0.4751   62.7904 C.3     1  ZINC000828026236    0.1500
     20 H20       -12.9164   -1.7234   58.9798 H       1  ZINC000828026236    0.1600
     21 H21        -8.7855   -2.7988   58.9354 H       1  ZINC000828026236    0.1800
     22 H22        -9.0366    1.5841   61.2370 H       1  ZINC000828026236    0.0700
     23 H23       -10.8088    1.6602   61.0978 H       1  ZINC000828026236    0.1100
     24 H24        -9.7866    3.2969   62.7750 H       1  ZINC000828026236    0.1100
     25 H25       -11.0439    2.2249   63.4448 H       1  ZINC000828026236    0.1000
     26 H26        -7.1379    1.6057   66.5573 H       1  ZINC000828026236    0.1800
     27 H27        -8.9937   -1.4692   63.2095 H       1  ZINC000828026236    0.1200
     28 H28        -8.0168   -0.5016   62.0741 H       1  ZINC000828026236    0.1000
@<TRIPOS>BOND
     1     1     2    3
     2     2     3    1
     3     3     9   ar
     4     3     4   ar
     5     4     5   ar
     6     4    20    1
     7     5     6    1
     8     5     7   ar
     9     7     8   ar
    10     7    21    1
    11     8     9   ar
    12     9    10    1
    13    10    19    1
    14    10    11    1
    15    11    12    1
    16    11    22    1
    17    11    23    1
    18    12    13    1
    19    12    24    1
    20    12    25    1
    21    13    18    1
    22    13    14    1
    23    14    15    1
    24    14    16    2
    25    16    17    1
    26    16    26    1
    27    17    18    2
    28    18    19    1
    29    19    27    1
    30    19    28    1
@<TRIPOS>SUBSTRUCTURE
     1 ZINC000828026236        1 TEMP              0 ****  ****    0 ROOT


##########                                Name:    ZINC000477669194
##########                DOCK_Rotatable_Bonds:                   6
##########                         Heavy_Atoms:                  26
##########                    Molecular_Weight:             387.483
##########                DOCK_Rotatable_Bonds:                   6
##########                       Formal_Charge:         4.47035e-07
##########                     HBond_Acceptors:                   8
##########                        HBond_Donors:                   2
##########                         Heavy_Atoms:                  26
##########                          Grid_Score:          -24.885429
##########                     Grid_vdw_energy:          -26.326639
##########                      Grid_es_energy:            1.441210
##########           Internal_energy_repulsive:          174.408768

@<TRIPOS>MOLECULE
ZINC000477669194
 43 45 1 0 0
SMALL
USER_CHARGES


@<TRIPOS>ATOM
      1 C1        -11.9901    4.6411   62.4918 C.3     1  ZINC000477669194   -0.0800
      2 C2        -11.1018    4.5975   63.7084 C.2     1  ZINC000477669194    0.0500
      3 N3        -10.3964    3.5810   64.0665 N.2     1  ZINC000477669194   -0.4900
      4 C4         -9.6670    3.7087   65.1655 C.2     1  ZINC000477669194    0.1200
      5 C5         -8.8077    2.6220   65.6946 C.ar    1  ZINC000477669194   -0.0600
      6 C6         -8.0641    2.8203   66.8550 C.ar    1  ZINC000477669194   -0.0800
      7 C7         -7.2654    1.8055   67.3437 C.ar    1  ZINC000477669194   -0.1400
      8 C8         -7.2004    0.5906   66.6850 C.ar    1  ZINC000477669194   -0.0900
      9 C9         -7.9336    0.3819   65.5320 C.ar    1  ZINC000477669194   -0.1300
     10 C10        -8.7448    1.3899   65.0330 C.ar    1  ZINC000477669194    0.1800
     11 N11        -9.4873    1.1806   63.8676 N.am    1  ZINC000477669194   -0.6500
     12 C12        -9.4163   -0.0029   63.2268 C.2     1  ZINC000477669194    0.5600
     13 O13        -8.7062   -0.8887   63.6626 O.2     1  ZINC000477669194   -0.5200
     14 C14       -10.1998   -0.2238   61.9969 C.ar    1  ZINC000477669194   -0.1500
     15 C15       -11.5800   -0.0003   61.9961 C.ar    1  ZINC000477669194   -0.0600
     16 C16       -12.3082   -0.2069   60.8469 C.ar    1  ZINC000477669194   -0.1400
     17 C17       -11.6721   -0.6380   59.6860 C.ar    1  ZINC000477669194    0.1700
     18 N18       -12.4109   -0.8458   58.5264 N.am    1  ZINC000477669194   -1.0600
     19 S19       -12.8018   -2.3856   58.0586 S.o2    1  ZINC000477669194    2.6100
     20 C20       -13.7773   -3.0441   59.4390 C.3     1  ZINC000477669194   -0.6700
     21 O21       -13.6199   -2.2061   56.9107 O.2     1  ZINC000477669194   -0.9400
     22 O22       -11.5504   -3.0530   57.9693 O.2     1  ZINC000477669194   -0.9500
     23 C23       -10.2979   -0.8610   59.6835 C.ar    1  ZINC000477669194   -0.1600
     24 C24        -9.5633   -0.6516   60.8280 C.ar    1  ZINC000477669194   -0.0300
     25 C25        -9.7747    4.9143   65.7601 C.2     1  ZINC000477669194   -0.2600
     26 S26       -10.8836    5.8925   64.8023 S.3     1  ZINC000477669194    0.1500
     27 H27       -12.4652    5.6198   62.4237 H       1  ZINC000477669194    0.0800
     28 H28       -11.3913    4.4649   61.5983 H       1  ZINC000477669194    0.0900
     29 H29       -12.7564    3.8702   62.5736 H       1  ZINC000477669194    0.0900
     30 H30        -8.1116    3.7673   67.3721 H       1  ZINC000477669194    0.1300
     31 H31        -6.6889    1.9608   68.2436 H       1  ZINC000477669194    0.1300
     32 H32        -6.5735   -0.1984   67.0733 H       1  ZINC000477669194    0.1300
     33 H33        -7.8782   -0.5684   65.0219 H       1  ZINC000477669194    0.1500
     34 H34       -10.0537    1.8871   63.5199 H       1  ZINC000477669194    0.4200
     35 H35       -12.0741    0.3338   62.8964 H       1  ZINC000477669194    0.1300
     36 H36       -13.3744   -0.0348   60.8457 H       1  ZINC000477669194    0.1400
     37 H37       -12.6972   -0.0890   57.9915 H       1  ZINC000477669194    0.4300
     38 H38       -14.7063   -2.4810   59.5285 H       1  ZINC000477669194    0.1300
     39 H39       -14.0051   -4.0940   59.2547 H       1  ZINC000477669194    0.1400
     40 H40       -13.2067   -2.9529   60.3632 H       1  ZINC000477669194    0.1300
     41 H41        -9.8073   -1.1950   58.7811 H       1  ZINC000477669194    0.1700
     42 H42        -8.4972   -0.8245   60.8253 H       1  ZINC000477669194    0.1500
     43 H43        -9.2680    5.2262   66.6613 H       1  ZINC000477669194    0.1800
@<TRIPOS>BOND
     1     1     2    1
     2     1    27    1
     3     1    28    1
     4     1    29    1
     5     2    26    1
     6     2     3    2
     7     3     4    1
     8     4     5    1
     9     4    25    2
    10     5    10   ar
    11     5     6   ar
    12     6     7   ar
    13     6    30    1
    14     7     8   ar
    15     7    31    1
    16     8     9   ar
    17     8    32    1
    18     9    10   ar
    19     9    33    1
    20    10    11    1
    21    11    12   am
    22    11    34    1
    23    12    13    2
    24    12    14    1
    25    14    24   ar
    26    14    15   ar
    27    15    16   ar
    28    15    35    1
    29    16    17   ar
    30    16    36    1
    31    17    18    1
    32    17    23   ar
    33    18    19   am
    34    18    37    1
    35    19    20    1
    36    19    21    2
    37    19    22    2
    38    20    38    1
    39    20    39    1
    40    20    40    1
    41    23    24   ar
    42    23    41    1
    43    24    42    1
    44    25    26    1
    45    25    43    1
@<TRIPOS>SUBSTRUCTURE
     1 ZINC000477669194        1 TEMP              0 ****  ****    0 ROOT


##########                                Name:    ZINC000369046711
##########                DOCK_Rotatable_Bonds:                   8
##########                         Heavy_Atoms:                  26
##########                    Molecular_Weight:             367.467
##########                DOCK_Rotatable_Bonds:                   8
##########                       Formal_Charge:        -7.63685e-07
##########                     HBond_Acceptors:                   8
##########                        HBond_Donors:                   1
##########                         Heavy_Atoms:                  26
##########                          Grid_Score:          -24.879644
##########                     Grid_vdw_energy:          -25.612017
##########                      Grid_es_energy:            0.732372
##########           Internal_energy_repulsive:           25.418495

@<TRIPOS>MOLECULE
ZINC000369046711
 56 58 1 0 0
SMALL
USER_CHARGES


@<TRIPOS>ATOM
      1 C1        -15.0991   -2.2585   55.5057 C.3     1  ZINC000369046711   -0.1800
      2 C2        -14.8690   -1.6708   56.8994 C.3     1  ZINC000369046711    0.1400
      3 C3        -15.5517   -0.3050   56.9961 C.3     1  ZINC000369046711   -0.1800
      4 C4        -15.4578   -2.6110   57.9530 C.3     1  ZINC000369046711   -0.1400
      5 O5        -13.4438   -1.5168   57.1305 O.3     1  ZINC000369046711   -0.3700
      6 C6        -13.0285   -1.5180   58.4113 C.2     1  ZINC000369046711    0.6500
      7 O7        -12.6133   -2.5432   58.9144 O.2     1  ZINC000369046711   -0.5700
      8 N8        -13.0737   -0.3822   59.1353 N.am    1  ZINC000369046711   -0.7100
      9 C9        -12.6202   -0.3831   60.5284 C.3     1  ZINC000369046711    0.1800
     10 H10       -12.4186   -1.4092   60.8355 H       1  ZINC000369046711    0.0900
     11 C11       -13.7253    0.1938   61.4124 C.3     1  ZINC000369046711   -0.1300
     12 C12       -13.9815    1.6399   60.9721 C.3     1  ZINC000369046711   -0.1200
     13 C13       -12.7194    2.4555   61.2376 C.3     1  ZINC000369046711   -0.1200
     14 C14       -11.5423    1.9302   60.4131 C.3     1  ZINC000369046711   -0.1000
     15 H15       -11.6302    2.1948   59.3595 H       1  ZINC000369046711    0.0900
     16 C16       -10.2567    2.5116   61.0627 C.3     1  ZINC000369046711    0.0400
     17 N17        -9.7938    1.5247   62.0578 N.3     1  ZINC000369046711   -0.5200
     18 C18        -9.7328    2.1191   63.3998 C.3     1  ZINC000369046711    0.1200
     19 C19        -8.9070    1.2388   64.3020 C.2     1  ZINC000369046711    0.2900
     20 N20        -8.4960    0.0275   64.0272 N.2     1  ZINC000369046711   -0.5400
     21 C21        -7.7911   -0.4535   65.0504 C.2     1  ZINC000369046711    0.2000
     22 N22        -7.7434    0.4490   65.9947 N.2     1  ZINC000369046711   -0.3200
     23 N23        -8.4591    1.5634   65.5273 N.pl3   1  ZINC000369046711   -0.3700
     24 C24        -8.6815    2.8251   66.2377 C.3     1  ZINC000369046711    0.1000
     25 C25        -8.0246    3.9693   65.4630 C.3     1  ZINC000369046711    0.0500
     26 F26        -8.2381    5.1744   66.1408 F       1  ZINC000369046711   -0.2000
     27 C27       -10.7137    0.3625   62.0328 C.3     1  ZINC000369046711    0.0500
     28 C28       -11.3485    0.4198   60.6318 C.3     1  ZINC000369046711   -0.1000
     29 H29       -10.6355    0.0415   59.8994 H       1  ZINC000369046711    0.0900
     30 H30       -14.6796   -1.5887   54.7551 H       1  ZINC000369046711    0.0900
     31 H31       -14.6128   -3.2315   55.4368 H       1  ZINC000369046711    0.0600
     32 H32       -16.1690   -2.3740   55.3323 H       1  ZINC000369046711    0.0700
     33 H33       -16.6216   -0.4205   56.8227 H       1  ZINC000369046711    0.0700
     34 H34       -15.3878    0.1138   57.9891 H       1  ZINC000369046711    0.0600
     35 H35       -15.1322    0.3649   56.2455 H       1  ZINC000369046711    0.0900
     36 H36       -14.9714   -3.5841   57.8842 H       1  ZINC000369046711    0.0700
     37 H37       -15.2939   -2.1922   58.9459 H       1  ZINC000369046711    0.0700
     38 H38       -16.5277   -2.7265   57.7796 H       1  ZINC000369046711    0.0800
     39 H39       -13.4063    0.4359   58.7340 H       1  ZINC000369046711    0.4000
     40 H40       -14.6357   -0.3938   61.2942 H       1  ZINC000369046711    0.0700
     41 H41       -13.4087    0.1771   62.4553 H       1  ZINC000369046711    0.0800
     42 H42       -14.2166    1.6634   59.9080 H       1  ZINC000369046711    0.0600
     43 H43       -14.8132    2.0550   61.5415 H       1  ZINC000369046711    0.0700
     44 H44       -12.9043    3.4969   60.9742 H       1  ZINC000369046711    0.0700
     45 H45       -12.4700    2.3940   62.2969 H       1  ZINC000369046711    0.0600
     46 H46        -9.4902    2.6609   60.3022 H       1  ZINC000369046711    0.0800
     47 H47       -10.4831    3.4578   61.5542 H       1  ZINC000369046711    0.0800
     48 H48        -9.2764    3.1071   63.3391 H       1  ZINC000369046711    0.0800
     49 H49       -10.7412    2.2089   63.8035 H       1  ZINC000369046711    0.1000
     50 H50        -7.3336   -1.4310   65.0930 H       1  ZINC000369046711    0.2200
     51 H51        -9.7523    3.0109   66.3216 H       1  ZINC000369046711    0.1200
     52 H52        -8.2444    2.7629   67.2342 H       1  ZINC000369046711    0.1100
     53 H53        -6.9537    3.7840   65.3799 H       1  ZINC000369046711    0.0900
     54 H54        -8.4611    4.0309   64.4662 H       1  ZINC000369046711    0.0800
     55 H55       -10.1590   -0.5665   62.1645 H       1  ZINC000369046711    0.0900
     56 H56       -11.4787    0.4642   62.8025 H       1  ZINC000369046711    0.0600
@<TRIPOS>BOND
     1     1     2    1
     2     1    30    1
     3     1    31    1
     4     1    32    1
     5     2     3    1
     6     2     4    1
     7     2     5    1
     8     3    33    1
     9     3    34    1
    10     3    35    1
    11     4    36    1
    12     4    37    1
    13     4    38    1
    14     5     6    1
    15     6     7    2
    16     6     8   am
    17     8     9    1
    18     8    39    1
    19     9    10    1
    20     9    28    1
    21     9    11    1
    22    11    12    1
    23    11    40    1
    24    11    41    1
    25    12    13    1
    26    12    42    1
    27    12    43    1
    28    13    14    1
    29    13    44    1
    30    13    45    1
    31    14    15    1
    32    14    28    1
    33    14    16    1
    34    16    17    1
    35    16    46    1
    36    16    47    1
    37    17    18    1
    38    17    27    1
    39    18    19    1
    40    18    48    1
    41    18    49    1
    42    19    23    1
    43    19    20    2
    44    20    21    1
    45    21    22    2
    46    21    50    1
    47    22    23    1
    48    23    24    1
    49    24    25    1
    50    24    51    1
    51    24    52    1
    52    25    26    1
    53    25    53    1
    54    25    54    1
    55    27    28    1
    56    27    55    1
    57    27    56    1
    58    28    29    1
@<TRIPOS>SUBSTRUCTURE
     1 ZINC000369046711        1 TEMP              0 ****  ****    0 ROOT


##########                                Name:    ZINC000966038509
##########                DOCK_Rotatable_Bonds:                   5
##########                         Heavy_Atoms:                  25
##########                    Molecular_Weight:             346.445
##########                DOCK_Rotatable_Bonds:                   5
##########                       Formal_Charge:           0.0299998
##########                     HBond_Acceptors:                   5
##########                        HBond_Donors:                   1
##########                         Heavy_Atoms:                  25
##########                          Grid_Score:          -24.863594
##########                     Grid_vdw_energy:          -24.150099
##########                      Grid_es_energy:           -0.713495
##########           Internal_energy_repulsive:           17.714191

@<TRIPOS>MOLECULE
ZINC000966038509
 52 54 1 0 0
SMALL
USER_CHARGES


@<TRIPOS>ATOM
      1 C1        -12.2975   -3.0152   57.2359 C.3     1  ZINC000966038509   -0.1200
      2 C2        -10.9657   -2.9488   57.9381 C.ar    1  ZINC000966038509   -0.0100
      3 C3         -9.8856   -3.6431   57.4370 C.ar    1  ZINC000966038509   -0.1600
      4 C4         -8.6599   -3.5834   58.0824 C.ar    1  ZINC000966038509    0.1300
      5 F5         -7.6045   -4.2662   57.5872 F       1  ZINC000966038509   -0.1300
      6 C6         -8.5132   -2.8250   59.2338 C.ar    1  ZINC000966038509   -0.1600
      7 C7         -9.5868   -2.1268   59.7436 C.ar    1  ZINC000966038509   -0.0100
      8 C8         -9.4261   -1.3033   60.9955 C.3     1  ZINC000966038509   -0.1200
      9 C9        -10.8223   -2.1792   59.0946 C.ar    1  ZINC000966038509   -0.1500
     10 C10       -11.9763   -1.4330   59.6362 C.2     1  ZINC000966038509    0.5700
     11 O11       -12.7119   -1.9576   60.4497 O.2     1  ZINC000966038509   -0.5200
     12 N12       -12.2140   -0.1704   59.2286 N.am    1  ZINC000966038509   -0.7100
     13 C13       -13.3575    0.5701   59.7671 C.3     1  ZINC000966038509    0.1300
     14 H14       -14.2494   -0.0561   59.7917 H       1  ZINC000966038509    0.1200
     15 C15       -13.0390    1.1383   61.1726 C.3     1  ZINC000966038509    0.0900
     16 N16       -12.2704    2.3700   60.9165 N.am    1  ZINC000966038509   -0.6200
     17 C17       -11.4052    2.9483   61.7729 C.2     1  ZINC000966038509    0.5400
     18 O18       -10.8251    3.9647   61.4549 O.2     1  ZINC000966038509   -0.5300
     19 C19       -11.1587    2.3318   63.1258 C.3     1  ZINC000966038509   -0.1100
     20 C20        -9.7789    1.6286   63.1579 C.3     1  ZINC000966038509   -0.1100
     21 C21        -9.4384    1.6126   64.6687 C.3     1  ZINC000966038509   -0.1200
     22 C22        -9.9564    2.9700   65.1877 C.3     1  ZINC000966038509   -0.1200
     23 C23       -11.0502    3.4272   64.2066 C.3     1  ZINC000966038509   -0.1100
     24 C24       -12.6034    2.8625   59.5718 C.3     1  ZINC000966038509    0.1000
     25 C25       -13.6115    1.8681   58.9557 C.3     1  ZINC000966038509   -0.1100
     26 H26       -14.6341    2.2180   59.0974 H       1  ZINC000966038509    0.1000
     27 C27       -13.3173    1.6496   57.4702 C.3     1  ZINC000966038509   -0.1400
     28 H28       -12.3569   -2.2191   56.4938 H       1  ZINC000966038509    0.0800
     29 H29       -12.3999   -3.9812   56.7416 H       1  ZINC000966038509    0.0800
     30 H30       -13.0989   -2.8932   57.9646 H       1  ZINC000966038509    0.0700
     31 H31        -9.9943   -4.2351   56.5403 H       1  ZINC000966038509    0.1400
     32 H32        -7.5562   -2.7816   59.7325 H       1  ZINC000966038509    0.1400
     33 H33        -9.1276   -0.2898   60.7278 H       1  ZINC000966038509    0.0800
     34 H34       -10.3731   -1.2729   61.5344 H       1  ZINC000966038509    0.0700
     35 H35        -8.6614   -1.7519   61.6297 H       1  ZINC000966038509    0.0800
     36 H36       -11.6279    0.2477   58.5786 H       1  ZINC000966038509    0.4000
     37 H37       -13.9609    1.3703   61.7058 H       1  ZINC000966038509    0.0800
     38 H38       -12.4391    0.4282   61.7418 H       1  ZINC000966038509    0.0800
     39 H39       -11.9535    1.6283   63.3740 H       1  ZINC000966038509    0.0900
     40 H40        -9.8536    0.6134   62.7680 H       1  ZINC000966038509    0.0700
     41 H41        -9.0392    2.2038   62.6011 H       1  ZINC000966038509    0.0700
     42 H42        -9.9539    0.7918   65.1674 H       1  ZINC000966038509    0.0700
     43 H43        -8.3613    1.5337   64.8162 H       1  ZINC000966038509    0.0700
     44 H44       -10.3763    2.8522   66.1866 H       1  ZINC000966038509    0.0700
     45 H45        -9.1444    3.6969   65.2068 H       1  ZINC000966038509    0.0700
     46 H46       -10.7689    4.3760   63.7496 H       1  ZINC000966038509    0.0800
     47 H47       -12.0009    3.5313   64.7294 H       1  ZINC000966038509    0.0700
     48 H48       -13.0543    3.8524   59.6408 H       1  ZINC000966038509    0.0800
     49 H49       -11.7030    2.9049   58.9591 H       1  ZINC000966038509    0.0700
     50 H50       -12.3015    1.2719   57.3529 H       1  ZINC000966038509    0.0600
     51 H51       -14.0233    0.9260   57.0626 H       1  ZINC000966038509    0.0700
     52 H52       -13.4173    2.5949   56.9371 H       1  ZINC000966038509    0.0700
@<TRIPOS>BOND
     1     1     2    1
     2     1    28    1
     3     1    29    1
     4     1    30    1
     5     2     9   ar
     6     2     3   ar
     7     3     4   ar
     8     3    31    1
     9     4     5    1
    10     4     6   ar
    11     6     7   ar
    12     6    32    1
    13     7     8    1
    14     7     9   ar
    15     8    33    1
    16     8    34    1
    17     8    35    1
    18     9    10    1
    19    10    11    2
    20    10    12   am
    21    12    13    1
    22    12    36    1
    23    13    14    1
    24    13    25    1
    25    13    15    1
    26    15    16    1
    27    15    37    1
    28    15    38    1
    29    16    17   am
    30    16    24    1
    31    17    18    2
    32    17    19    1
    33    19    23    1
    34    19    20    1
    35    19    39    1
    36    20    21    1
    37    20    40    1
    38    20    41    1
    39    21    22    1
    40    21    42    1
    41    21    43    1
    42    22    23    1
    43    22    44    1
    44    22    45    1
    45    23    46    1
    46    23    47    1
    47    24    25    1
    48    24    48    1
    49    24    49    1
    50    25    26    1
    51    25    27    1
    52    27    50    1
    53    27    51    1
    54    27    52    1
@<TRIPOS>SUBSTRUCTURE
     1 ZINC000966038509        1 TEMP              0 ****  ****    0 ROOT


##########                                Name:    ZINC000002634904
##########                DOCK_Rotatable_Bonds:                   7
##########                         Heavy_Atoms:                  31
##########                    Molecular_Weight:             423.498
##########                DOCK_Rotatable_Bonds:                   7
##########                       Formal_Charge:        -7.45058e-08
##########                     HBond_Acceptors:                   7
##########                        HBond_Donors:                   1
##########                         Heavy_Atoms:                  31
##########                          Grid_Score:          -24.845087
##########                     Grid_vdw_energy:          -25.811607
##########                      Grid_es_energy:            0.966521
##########           Internal_energy_repulsive:           14.358316

@<TRIPOS>MOLECULE
ZINC000002634904
 48 51 1 0 0
SMALL
USER_CHARGES


@<TRIPOS>ATOM
      1 N1        -14.4823    3.4490   52.3801 N.1     1  ZINC000002634904   -0.4100
      2 C2        -14.1848    2.6110   53.0869 C.1     1  ZINC000002634904    0.2500
      3 C3        -13.8099    1.5546   53.9780 C.ar    1  ZINC000002634904   -0.0400
      4 C4        -13.7378    0.2384   53.5132 C.ar    1  ZINC000002634904   -0.0500
      5 C5        -13.3770   -0.7749   54.3729 C.ar    1  ZINC000002634904   -0.1400
      6 C6        -13.0844   -0.4898   55.7026 C.ar    1  ZINC000002634904    0.1700
      7 N7        -12.7190   -1.5193   56.5709 N.am    1  ZINC000002634904   -0.6700
      8 C8        -13.4246   -1.7314   57.6994 C.2     1  ZINC000002634904    0.5400
      9 O9        -14.3771   -1.0274   57.9604 O.2     1  ZINC000002634904   -0.5000
     10 C10       -13.0300   -2.8431   58.6371 C.3     1  ZINC000002634904   -0.1700
     11 S11       -11.2351   -3.0699   58.5826 S.3     1  ZINC000002634904    0.1300
     12 C12       -10.7434   -1.9186   59.8224 C.ar    1  ZINC000002634904    0.2100
     13 N13        -9.6108   -2.1179   60.4872 N.ar    1  ZINC000002634904   -0.2900
     14 N14        -9.2122   -1.3036   61.4007 N.ar    1  ZINC000002634904   -0.1600
     15 C15        -9.9323   -0.2294   61.7060 C.ar    1  ZINC000002634904    0.0600
     16 C16        -9.4748    0.7094   62.7570 C.ar    1  ZINC000002634904   -0.0500
     17 C17        -9.0697    0.2248   64.0003 C.ar    1  ZINC000002634904   -0.0800
     18 C18        -8.6446    1.1040   64.9752 C.ar    1  ZINC000002634904   -0.1200
     19 C19        -8.6204    2.4637   64.7213 C.ar    1  ZINC000002634904   -0.1000
     20 C20        -9.0212    2.9503   63.4900 C.ar    1  ZINC000002634904   -0.1200
     21 C21        -9.4423    2.0805   62.5050 C.ar    1  ZINC000002634904   -0.0800
     22 C22       -11.1379    0.0030   61.0140 C.ar    1  ZINC000002634904    0.2300
     23 C23       -11.9719    1.1881   61.3223 C.ar    1  ZINC000002634904   -0.0700
     24 C24       -12.3587    2.0566   60.3022 C.ar    1  ZINC000002634904   -0.0700
     25 C25       -13.1359    3.1584   60.5955 C.ar    1  ZINC000002634904   -0.1200
     26 C26       -13.5314    3.4022   61.8985 C.ar    1  ZINC000002634904   -0.0900
     27 C27       -13.1505    2.5446   62.9149 C.ar    1  ZINC000002634904   -0.1200
     28 C28       -12.3782    1.4363   62.6331 C.ar    1  ZINC000002634904   -0.0700
     29 N29       -11.5076   -0.8631   60.0735 N.ar    1  ZINC000002634904   -0.4400
     30 C30       -13.1547    0.8189   56.1687 C.ar    1  ZINC000002634904   -0.1200
     31 C31       -13.5096    1.8380   55.3134 C.ar    1  ZINC000002634904   -0.0500
     32 H32       -13.9652    0.0164   52.4810 H       1  ZINC000002634904    0.1400
     33 H33       -13.3214   -1.7921   54.0145 H       1  ZINC000002634904    0.1400
     34 H34       -11.9573   -2.0824   56.3622 H       1  ZINC000002634904    0.4200
     35 H35       -13.3332   -2.5870   59.6523 H       1  ZINC000002634904    0.1300
     36 H36       -13.5223   -3.7668   58.3332 H       1  ZINC000002634904    0.1300
     37 H37        -9.0888   -0.8364   64.1999 H       1  ZINC000002634904    0.1300
     38 H38        -8.3306    0.7300   65.9384 H       1  ZINC000002634904    0.1300
     39 H39        -8.2876    3.1481   65.4877 H       1  ZINC000002634904    0.1300
     40 H40        -9.0002    4.0129   63.2975 H       1  ZINC000002634904    0.1300
     41 H41        -9.7546    2.4615   61.5439 H       1  ZINC000002634904    0.1200
     42 H42       -12.0502    1.8674   59.2846 H       1  ZINC000002634904    0.1300
     43 H43       -13.4357    3.8318   59.8062 H       1  ZINC000002634904    0.1300
     44 H44       -14.1397    4.2659   62.1232 H       1  ZINC000002634904    0.1300
     45 H45       -13.4621    2.7403   63.9303 H       1  ZINC000002634904    0.1300
     46 H46       -12.0815    0.7674   63.4274 H       1  ZINC000002634904    0.1300
     47 H47       -12.9265    1.0364   57.2016 H       1  ZINC000002634904    0.1500
     48 H48       -13.5636    2.8539   55.6758 H       1  ZINC000002634904    0.1400
@<TRIPOS>BOND
     1     1     2    3
     2     2     3    1
     3     3    31   ar
     4     3     4   ar
     5     4     5   ar
     6     4    32    1
     7     5     6   ar
     8     5    33    1
     9     6     7    1
    10     6    30   ar
    11     7     8   am
    12     7    34    1
    13     8     9    2
    14     8    10    1
    15    10    11    1
    16    10    35    1
    17    10    36    1
    18    11    12    1
    19    12    29   ar
    20    12    13   ar
    21    13    14   ar
    22    14    15   ar
    23    15    16    1
    24    15    22   ar
    25    16    21   ar
    26    16    17   ar
    27    17    18   ar
    28    17    37    1
    29    18    19   ar
    30    18    38    1
    31    19    20   ar
    32    19    39    1
    33    20    21   ar
    34    20    40    1
    35    21    41    1
    36    22    23    1
    37    22    29   ar
    38    23    28   ar
    39    23    24   ar
    40    24    25   ar
    41    24    42    1
    42    25    26   ar
    43    25    43    1
    44    26    27   ar
    45    26    44    1
    46    27    28   ar
    47    27    45    1
    48    28    46    1
    49    30    31   ar
    50    30    47    1
    51    31    48    1
@<TRIPOS>SUBSTRUCTURE
     1 ZINC000002634904        1 TEMP              0 ****  ****    0 ROOT


##########                                Name:    ZINC000588570917
##########                DOCK_Rotatable_Bonds:                   7
##########                         Heavy_Atoms:                  25
##########                    Molecular_Weight:             366.481
##########                DOCK_Rotatable_Bonds:                   7
##########                       Formal_Charge:          -0.0100006
##########                     HBond_Acceptors:                   7
##########                        HBond_Donors:                   1
##########                         Heavy_Atoms:                  25
##########                          Grid_Score:          -24.834240
##########                     Grid_vdw_energy:          -24.717035
##########                      Grid_es_energy:           -0.117204
##########           Internal_energy_repulsive:          173.942978

@<TRIPOS>MOLECULE
ZINC000588570917
 51 52 1 0 0
SMALL
USER_CHARGES


@<TRIPOS>ATOM
      1 C1          2.4005    3.5165   54.9749 C.3     1  ZINC000588570917   -0.1300
      2 C2          0.9921    3.4446   54.4437 C.2     1  ZINC000588570917   -0.0500
      3 C3          0.7407    2.7936   53.3113 C.2     1  ZINC000588570917   -0.2000
      4 C4          1.8646    2.1293   52.5585 C.3     1  ZINC000588570917   -0.0900
      5 C5          2.4628    3.1193   51.5571 C.3     1  ZINC000588570917   -0.1500
      6 C6         -0.6340    2.7220   52.7938 C.2     1  ZINC000588570917    0.5600
      7 O7         -0.8637    2.1272   51.7582 O.2     1  ZINC000588570917   -0.5100
      8 N8         -1.6392    3.3157   53.4672 N.am    1  ZINC000588570917   -0.6800
      9 C9         -2.9464    3.2477   52.9753 C.ar    1  ZINC000588570917    0.2100
     10 C10        -3.9825    3.8646   53.6646 C.ar    1  ZINC000588570917   -0.1700
     11 C11        -5.2723    3.7960   53.1756 C.ar    1  ZINC000588570917    0.0000
     12 C12        -5.5328    3.1141   52.0012 C.ar    1  ZINC000588570917   -0.7000
     13 S13        -7.1798    3.0290   51.3808 S.o2    1  ZINC000588570917    2.6900
     14 O14        -7.1163    2.2793   50.1753 O.2     1  ZINC000588570917   -0.9500
     15 O15        -8.0041    2.6655   52.4797 O.2     1  ZINC000588570917   -0.9500
     16 N16        -7.6224    4.5663   50.9527 N.am    1  ZINC000588570917   -1.0000
     17 C17        -8.0078    4.8860   49.5690 C.3     1  ZINC000588570917    0.0900
     18 C18        -9.3475    5.6305   49.6000 C.3     1  ZINC000588570917    0.0700
     19 H19       -10.1329    4.9530   49.9347 H       1  ZINC000588570917    0.0700
     20 C20        -9.6792    6.1441   48.1975 C.3     1  ZINC000588570917   -0.1500
     21 O21        -9.2518    6.7342   50.5035 O.3     1  ZINC000588570917   -0.3700
     22 C22        -9.0000    6.3599   51.8601 C.3     1  ZINC000588570917    0.0800
     23 H23        -8.9858    7.2515   52.4871 H       1  ZINC000588570917    0.1200
     24 C24       -10.1014    5.4136   52.3420 C.3     1  ZINC000588570917   -0.1900
     25 C25        -7.6480    5.6516   51.9461 C.3     1  ZINC000588570917    0.0900
     26 C26        -4.5035    2.4992   51.3122 C.ar    1  ZINC000588570917    0.0000
     27 C27        -3.2107    2.5681   51.7931 C.ar    1  ZINC000588570917   -0.1400
     28 H28         2.4098    4.0864   55.9039 H       1  ZINC000588570917    0.0600
     29 H29         2.7696    2.5084   55.1633 H       1  ZINC000588570917    0.0800
     30 H30         3.0409    4.0067   54.2415 H       1  ZINC000588570917    0.0800
     31 H31         0.1868    3.9219   54.9824 H       1  ZINC000588570917    0.1300
     32 H32         2.6354    1.8128   53.2612 H       1  ZINC000588570917    0.0700
     33 H33         1.4804    1.2600   52.0247 H       1  ZINC000588570917    0.0800
     34 H34         2.8470    3.9886   52.0909 H       1  ZINC000588570917    0.0500
     35 H35         3.2757    2.6389   51.0126 H       1  ZINC000588570917    0.0600
     36 H36         1.6920    3.4359   50.8544 H       1  ZINC000588570917    0.0600
     37 H37        -1.4560    3.7901   54.2932 H       1  ZINC000588570917    0.4100
     38 H38        -3.7797    4.3971   54.5821 H       1  ZINC000588570917    0.1400
     39 H39        -6.0784    4.2753   53.7113 H       1  ZINC000588570917    0.1400
     40 H40        -7.2466    5.5188   49.1128 H       1  ZINC000588570917    0.0900
     41 H41        -8.1127    3.9653   48.9951 H       1  ZINC000588570917    0.1000
     42 H42        -9.7479    5.3019   47.5089 H       1  ZINC000588570917    0.0700
     43 H43       -10.6318    6.6733   48.2202 H       1  ZINC000588570917    0.0700
     44 H44        -8.8943    6.8230   47.8640 H       1  ZINC000588570917    0.0700
     45 H45       -10.1137    4.5216   51.7156 H       1  ZINC000588570917    0.0600
     46 H46        -9.9087    5.1287   53.3763 H       1  ZINC000588570917    0.0700
     47 H47       -11.0663    5.9164   52.2773 H       1  ZINC000588570917    0.0700
     48 H48        -7.5125    5.2393   52.9460 H       1  ZINC000588570917    0.1000
     49 H49        -6.8481    6.3595   51.7289 H       1  ZINC000588570917    0.0900
     50 H50        -4.7103    1.9674   50.3953 H       1  ZINC000588570917    0.1400
     51 H51        -2.4072    2.0880   51.2543 H       1  ZINC000588570917    0.1500
@<TRIPOS>BOND
     1     1     2    1
     2     1    28    1
     3     1    29    1
     4     1    30    1
     5     2     3    2
     6     2    31    1
     7     3     4    1
     8     3     6    1
     9     4     5    1
    10     4    32    1
    11     4    33    1
    12     5    34    1
    13     5    35    1
    14     5    36    1
    15     6     7    2
    16     6     8   am
    17     8     9    1
    18     8    37    1
    19     9    27   ar
    20     9    10   ar
    21    10    11   ar
    22    10    38    1
    23    11    12   ar
    24    11    39    1
    25    12    13    1
    26    12    26   ar
    27    13    14    2
    28    13    15    2
    29    13    16   am
    30    16    25    1
    31    16    17    1
    32    17    18    1
    33    17    40    1
    34    17    41    1
    35    18    19    1
    36    18    20    1
    37    18    21    1
    38    20    42    1
    39    20    43    1
    40    20    44    1
    41    21    22    1
    42    22    23    1
    43    22    24    1
    44    22    25    1
    45    24    45    1
    46    24    46    1
    47    24    47    1
    48    25    48    1
    49    25    49    1
    50    26    27   ar
    51    26    50    1
    52    27    51    1
@<TRIPOS>SUBSTRUCTURE
     1 ZINC000588570917        1 TEMP              0 ****  ****    0 ROOT


##########                                Name:    ZINC000443933644
##########                DOCK_Rotatable_Bonds:                   8
##########                         Heavy_Atoms:                  27
##########                    Molecular_Weight:             402.438
##########                DOCK_Rotatable_Bonds:                   8
##########                       Formal_Charge:          0.00999922
##########                     HBond_Acceptors:                   9
##########                        HBond_Donors:                   2
##########                         Heavy_Atoms:                  27
##########                          Grid_Score:          -24.759993
##########                     Grid_vdw_energy:          -23.871685
##########                      Grid_es_energy:           -0.888308
##########           Internal_energy_repulsive:           55.808460

@<TRIPOS>MOLECULE
ZINC000443933644
 48 49 1 0 0
SMALL
USER_CHARGES


@<TRIPOS>ATOM
      1 C1         -9.2590    3.6685   59.9235 C.3     1  ZINC000443933644   -0.1500
      2 C2        -10.3392    4.1024   60.9164 C.3     1  ZINC000443933644   -0.1400
      3 C3         -9.6829    4.7853   62.1180 C.3     1  ZINC000443933644   -0.1000
      4 H4        -10.3196    5.5986   62.4661 H       1  ZINC000443933644    0.1000
      5 C5         -8.3204    5.3452   61.7048 C.3     1  ZINC000443933644   -0.1700
      6 C6         -9.4955    3.7665   63.2440 C.3     1  ZINC000443933644    0.1200
      7 H7         -8.9034    2.9270   62.8796 H       1  ZINC000443933644    0.1300
      8 N8        -10.8053    3.2838   63.6888 N.am    1  ZINC000443933644   -1.1100
      9 S9        -10.9984    1.6986   64.1271 S.o2    1  ZINC000443933644    2.6900
     10 O10       -10.0058    1.4297   65.1078 O.2     1  ZINC000443933644   -0.9400
     11 O11       -12.3883    1.5122   64.3565 O.2     1  ZINC000443933644   -0.9400
     12 C12       -10.5896    0.7157   62.7230 C.ar    1  ZINC000443933644   -0.7000
     13 C13       -11.3885    0.7725   61.5685 C.ar    1  ZINC000443933644    0.0500
     14 C14       -12.5194    1.6050   61.5057 C.ar    1  ZINC000443933644   -0.1400
     15 C15       -13.2710    1.6359   60.3714 C.ar    1  ZINC000443933644   -0.0800
     16 C16       -12.9366    0.8532   59.2680 C.ar    1  ZINC000443933644   -0.1200
     17 C17       -11.8486    0.0350   59.2935 C.ar    1  ZINC000443933644   -0.0900
     18 C18       -11.0494   -0.0228   60.4461 C.ar    1  ZINC000443933644   -0.0900
     19 C19        -9.9145   -0.8588   60.5091 C.ar    1  ZINC000443933644    0.2300
     20 N20        -9.5619   -1.6513   59.4151 N.am    1  ZINC000443933644   -0.6700
     21 C21        -9.6983   -2.9905   59.4813 C.2     1  ZINC000443933644    0.5100
     22 C22        -9.3177   -3.8460   58.3004 C.3     1  ZINC000443933644   -0.1700
     23 O23       -10.1273   -3.5072   60.4913 O.2     1  ZINC000443933644   -0.5100
     24 C24        -9.1569   -0.8857   61.6601 C.ar    1  ZINC000443933644   -0.1600
     25 C25        -9.4962   -0.0952   62.7539 C.ar    1  ZINC000443933644    0.0400
     26 C26        -8.7713    4.4303   64.4170 C.3     1  ZINC000443933644    0.4300
     27 F27        -7.3905    4.2615   64.2683 F       1  ZINC000443933644   -0.1700
     28 F28        -9.0745    5.7958   64.4397 F       1  ZINC000443933644   -0.1600
     29 F29        -9.1869    3.8403   65.6155 F       1  ZINC000443933644   -0.1700
     30 H30        -8.7036    4.5434   59.5856 H       1  ZINC000443933644    0.0500
     31 H31        -8.5773    2.9710   60.4102 H       1  ZINC000443933644    0.0600
     32 H32        -9.7266    3.1819   59.0675 H       1  ZINC000443933644    0.0600
     33 H33       -11.0210    4.7998   60.4297 H       1  ZINC000443933644    0.0700
     34 H34       -10.8946    3.2275   61.2543 H       1  ZINC000443933644    0.0900
     35 H35        -8.4620    6.1532   60.9869 H       1  ZINC000443933644    0.0700
     36 H36        -7.8026    5.7275   62.5846 H       1  ZINC000443933644    0.0600
     37 H37        -7.7256    4.5540   61.2485 H       1  ZINC000443933644    0.0700
     38 H38       -11.5594    3.8928   63.7266 H       1  ZINC000443933644    0.4300
     39 H39       -12.7908    2.2168   62.3534 H       1  ZINC000443933644    0.1400
     40 H40       -14.1395    2.2762   60.3259 H       1  ZINC000443933644    0.1300
     41 H41       -13.5495    0.8961   58.3799 H       1  ZINC000443933644    0.1300
     42 H42       -11.6017   -0.5665   58.4312 H       1  ZINC000443933644    0.1300
     43 H43        -9.2187   -1.2380   58.6074 H       1  ZINC000443933644    0.4200
     44 H44        -8.9561   -3.2099   57.4926 H       1  ZINC000443933644    0.0800
     45 H45        -8.5322   -4.5421   58.5943 H       1  ZINC000443933644    0.1000
     46 H46       -10.1897   -4.4046   57.9605 H       1  ZINC000443933644    0.1000
     47 H47        -8.2875   -1.5243   61.7121 H       1  ZINC000443933644    0.1500
     48 H48        -8.8878   -0.1327   63.6455 H       1  ZINC000443933644    0.1500
@<TRIPOS>BOND
     1     1     2    1
     2     1    30    1
     3     1    31    1
     4     1    32    1
     5     2     3    1
     6     2    33    1
     7     2    34    1
     8     3     4    1
     9     3     5    1
    10     3     6    1
    11     5    35    1
    12     5    36    1
    13     5    37    1
    14     6     7    1
    15     6     8    1
    16     6    26    1
    17     8     9   am
    18     8    38    1
    19     9    10    2
    20     9    11    2
    21     9    12    1
    22    12    25   ar
    23    12    13   ar
    24    13    18   ar
    25    13    14   ar
    26    14    15   ar
    27    14    39    1
    28    15    16   ar
    29    15    40    1
    30    16    17   ar
    31    16    41    1
    32    17    18   ar
    33    17    42    1
    34    18    19   ar
    35    19    20    1
    36    19    24   ar
    37    20    21   am
    38    20    43    1
    39    21    22    1
    40    21    23    2
    41    22    44    1
    42    22    45    1
    43    22    46    1
    44    24    25   ar
    45    24    47    1
    46    25    48    1
    47    26    27    1
    48    26    28    1
    49    26    29    1
@<TRIPOS>SUBSTRUCTURE
     1 ZINC000443933644        1 TEMP              0 ****  ****    0 ROOT


##########                                Name:    ZINC000062882109
##########                DOCK_Rotatable_Bonds:                   8
##########                         Heavy_Atoms:                  31
##########                    Molecular_Weight:             424.497
##########                DOCK_Rotatable_Bonds:                   8
##########                       Formal_Charge:           0.0299993
##########                     HBond_Acceptors:                   7
##########                        HBond_Donors:                   1
##########                         Heavy_Atoms:                  31
##########                          Grid_Score:          -24.728689
##########                     Grid_vdw_energy:          -23.214695
##########                      Grid_es_energy:           -1.513994
##########           Internal_energy_repulsive:          199.531189

@<TRIPOS>MOLECULE
ZINC000062882109
 59 61 1 0 0
SMALL
USER_CHARGES


@<TRIPOS>ATOM
      1 C1         -6.9854    4.6266   64.3474 C.3     1  ZINC000062882109   -0.2000
      2 C2         -8.4059    4.4811   63.8655 C.2     1  ZINC000062882109    0.3900
      3 O3         -8.6287    4.2481   62.6966 O.2     1  ZINC000062882109   -0.4500
      4 C4         -9.5227    4.6215   64.8138 C.ar    1  ZINC000062882109   -0.1300
      5 C5         -9.2691    4.8911   66.1624 C.ar    1  ZINC000062882109   -0.1100
      6 C6        -10.3190    5.0219   67.0474 C.ar    1  ZINC000062882109   -0.0900
      7 C7        -11.6227    4.8875   66.6061 C.ar    1  ZINC000062882109   -0.1800
      8 C8        -11.8856    4.6193   65.2689 C.ar    1  ZINC000062882109    0.1200
      9 O9        -13.1694    4.4884   64.8423 O.3     1  ZINC000062882109   -0.2800
     10 C10       -13.3668    4.2129   63.4540 C.3     1  ZINC000062882109    0.0700
     11 H11       -12.9416    5.0211   62.8591 H       1  ZINC000062882109    0.1000
     12 C12       -14.8649    4.1001   63.1645 C.3     1  ZINC000062882109   -0.1800
     13 C13       -12.6873    2.9157   63.0979 C.2     1  ZINC000062882109    0.5200
     14 O14       -12.5760    2.0408   63.9304 O.2     1  ZINC000062882109   -0.4900
     15 N15       -12.2033    2.7280   61.8541 N.am    1  ZINC000062882109   -0.6600
     16 C16       -11.5716    1.5220   61.5229 C.ar    1  ZINC000062882109    0.1400
     17 C17       -10.4003    1.1507   62.1689 C.ar    1  ZINC000062882109   -0.1000
     18 C18        -9.7733   -0.0370   61.8439 C.ar    1  ZINC000062882109   -0.1100
     19 C19       -10.3113   -0.8647   60.8698 C.ar    1  ZINC000062882109    0.0800
     20 O20        -9.6801   -2.0268   60.5528 O.3     1  ZINC000062882109   -0.3100
     21 C21       -10.4446   -3.0431   59.9000 C.3     1  ZINC000062882109    0.0500
     22 C22       -11.1891   -2.4165   58.7125 C.3     1  ZINC000062882109    0.0400
     23 N23       -12.0376   -1.3342   59.2401 N.am    1  ZINC000062882109   -0.5500
     24 C24       -13.2973   -1.1559   58.7953 C.2     1  ZINC000062882109    0.5300
     25 O25       -13.9776   -0.2578   59.2444 O.2     1  ZINC000062882109   -0.5100
     26 C26       -13.8605   -2.0725   57.7399 C.3     1  ZINC000062882109   -0.0800
     27 C27       -15.2281   -1.5538   57.2911 C.3     1  ZINC000062882109   -0.1300
     28 C28       -12.9116   -2.1128   56.5404 C.3     1  ZINC000062882109   -0.1600
     29 C29       -14.0135   -3.4813   58.3168 C.3     1  ZINC000062882109   -0.1500
     30 C30       -11.4883   -0.4942   60.2240 C.ar    1  ZINC000062882109    0.1000
     31 C31       -12.1193    0.6941   60.5519 C.ar    1  ZINC000062882109   -0.1400
     32 C32       -10.8417    4.4919   64.3693 C.ar    1  ZINC000062882109   -0.0900
     33 H33        -6.3018    4.4911   63.5093 H       1  ZINC000062882109    0.0900
     34 H34        -6.8461    5.6204   64.7729 H       1  ZINC000062882109    0.1000
     35 H35        -6.7810    3.8735   65.1084 H       1  ZINC000062882109    0.1000
     36 H36        -8.2523    4.9964   66.5107 H       1  ZINC000062882109    0.1400
     37 H37       -10.1223    5.2297   68.0888 H       1  ZINC000062882109    0.1300
     38 H38       -12.4400    4.9912   67.3044 H       1  ZINC000062882109    0.1300
     39 H39       -15.3563    5.0384   63.4221 H       1  ZINC000062882109    0.0800
     40 H40       -15.0155    3.8900   62.1055 H       1  ZINC000062882109    0.0800
     41 H41       -15.2902    3.2919   63.7594 H       1  ZINC000062882109    0.0800
     42 H42       -12.2923    3.4277   61.1882 H       1  ZINC000062882109    0.4100
     43 H43        -9.9776    1.7922   62.9279 H       1  ZINC000062882109    0.1400
     44 H44        -8.8622   -0.3213   62.3492 H       1  ZINC000062882109    0.1400
     45 H45        -9.7783   -3.8273   59.5408 H       1  ZINC000062882109    0.1300
     46 H46       -11.1646   -3.4655   60.6009 H       1  ZINC000062882109    0.0700
     47 H47       -10.4721   -2.0100   57.9992 H       1  ZINC000062882109    0.0900
     48 H48       -11.8097   -3.1692   58.2262 H       1  ZINC000062882109    0.1300
     49 H49       -15.1191   -0.5501   56.8801 H       1  ZINC000062882109    0.0600
     50 H50       -15.6354   -2.2167   56.5277 H       1  ZINC000062882109    0.0700
     51 H51       -15.9041   -1.5251   58.1456 H       1  ZINC000062882109    0.0700
     52 H52       -11.9373   -2.4823   56.8601 H       1  ZINC000062882109    0.0700
     53 H53       -13.3189   -2.7757   55.7770 H       1  ZINC000062882109    0.0800
     54 H54       -12.8026   -1.1092   56.1294 H       1  ZINC000062882109    0.0600
     55 H55       -14.8319   -3.4922   59.0366 H       1  ZINC000062882109    0.0700
     56 H56       -14.2292   -4.1825   57.5106 H       1  ZINC000062882109    0.0800
     57 H57       -13.0883   -3.7727   58.8140 H       1  ZINC000062882109    0.0700
     58 H58       -13.0326    0.9783   60.0505 H       1  ZINC000062882109    0.1800
     59 H59       -11.0451    4.2838   63.3292 H       1  ZINC000062882109    0.1400
@<TRIPOS>BOND
     1     1     2    1
     2     1    33    1
     3     1    34    1
     4     1    35    1
     5     2     3    2
     6     2     4    1
     7     4    32   ar
     8     4     5   ar
     9     5     6   ar
    10     5    36    1
    11     6     7   ar
    12     6    37    1
    13     7     8   ar
    14     7    38    1
    15     8     9    1
    16     8    32   ar
    17     9    10    1
    18    10    11    1
    19    10    12    1
    20    10    13    1
    21    12    39    1
    22    12    40    1
    23    12    41    1
    24    13    14    2
    25    13    15   am
    26    15    16    1
    27    15    42    1
    28    16    31   ar
    29    16    17   ar
    30    17    18   ar
    31    17    43    1
    32    18    19   ar
    33    18    44    1
    34    19    30   ar
    35    19    20    1
    36    20    21    1
    37    21    22    1
    38    21    45    1
    39    21    46    1
    40    22    23    1
    41    22    47    1
    42    22    48    1
    43    23    24   am
    44    23    30    1
    45    24    25    2
    46    24    26    1
    47    26    27    1
    48    26    28    1
    49    26    29    1
    50    27    49    1
    51    27    50    1
    52    27    51    1
    53    28    52    1
    54    28    53    1
    55    28    54    1
    56    29    55    1
    57    29    56    1
    58    29    57    1
    59    30    31   ar
    60    31    58    1
    61    32    59    1
@<TRIPOS>SUBSTRUCTURE
     1 ZINC000062882109        1 TEMP              0 ****  ****    0 ROOT


##########                                Name:    ZINC000444542200
##########                DOCK_Rotatable_Bonds:                   8
##########                         Heavy_Atoms:                  28
##########                    Molecular_Weight:             404.337
##########                DOCK_Rotatable_Bonds:                   8
##########                       Formal_Charge:           0.0200001
##########                     HBond_Acceptors:                  10
##########                        HBond_Donors:                   1
##########                         Heavy_Atoms:                  28
##########                          Grid_Score:          -24.698755
##########                     Grid_vdw_energy:          -23.170906
##########                      Grid_es_energy:           -1.527850
##########           Internal_energy_repulsive:           23.812424

@<TRIPOS>MOLECULE
ZINC000444542200
 45 46 1 0 0
SMALL
USER_CHARGES


@<TRIPOS>ATOM
      1 C1          0.8981   -0.3017   60.4604 C.3     1  ZINC000444542200    0.0300
      2 O2         -0.2099    0.4713   59.9945 O.3     1  ZINC000444542200   -0.3100
      3 C3          0.0650    1.4893   59.1373 C.ar    1  ZINC000444542200    0.1800
      4 C4          1.3786    1.7709   58.7943 C.ar    1  ZINC000444542200   -0.1700
      5 C5          1.6592    2.8105   57.9183 C.ar    1  ZINC000444542200    0.2300
      6 N6          2.9847    3.0948   57.5713 N.am    1  ZINC000444542200   -0.5800
      7 C7          3.9573    3.4366   58.6122 C.3     1  ZINC000444542200    0.0700
      8 C8          3.3666    3.0542   56.2794 C.2     1  ZINC000444542200    0.7100
      9 O9          4.5183    3.3013   55.9778 O.2     1  ZINC000444542200   -0.5500
     10 N10         2.4719    2.7397   55.3219 N.am    1  ZINC000444542200   -0.7300
     11 C11         2.8874    2.6937   53.9177 C.3     1  ZINC000444542200    0.1700
     12 H12         3.8103    2.1204   53.8305 H       1  ZINC000444542200    0.1500
     13 C13         1.8084    2.0369   53.0958 C.ar    1  ZINC000444542200   -0.1300
     14 C14         0.4799    2.3320   53.3370 C.ar    1  ZINC000444542200   -0.0800
     15 C15        -0.5111    1.7301   52.5839 C.ar    1  ZINC000444542200   -0.0900
     16 C16        -0.1754    0.8323   51.5882 C.ar    1  ZINC000444542200   -0.1100
     17 C17         1.1541    0.5347   51.3441 C.ar    1  ZINC000444542200    0.0800
     18 F18         1.4830   -0.3428   50.3710 F       1  ZINC000444542200   -0.1200
     19 C19         2.1482    1.1425   52.0956 C.ar    1  ZINC000444542200    0.1000
     20 F20         3.4466    0.8536   51.8592 F       1  ZINC000444542200   -0.1100
     21 C21         3.1212    4.1174   53.4083 C.3     1  ZINC000444542200    0.4400
     22 F22         2.5956    5.0333   54.3259 F       1  ZINC000444542200   -0.1600
     23 F23         4.4945    4.3404   53.2613 F       1  ZINC000444542200   -0.1700
     24 F24         2.4874    4.2803   52.1718 F       1  ZINC000444542200   -0.1800
     25 C25         0.6245    3.5675   57.3865 C.ar    1  ZINC000444542200   -0.1900
     26 C26        -0.6886    3.2850   57.7304 C.ar    1  ZINC000444542200    0.1800
     27 O27        -1.7017    4.0261   57.2098 O.3     1  ZINC000444542200   -0.3100
     28 C28        -3.0253    3.7151   57.6494 C.3     1  ZINC000444542200    0.0300
     29 C29        -0.9687    2.2428   58.6014 C.ar    1  ZINC000444542200   -0.2900
     30 H30         1.4024   -0.7623   59.6109 H       1  ZINC000444542200    0.0600
     31 H31         1.5964    0.3465   60.9898 H       1  ZINC000444542200    0.0600
     32 H32         0.5405   -1.0790   61.1357 H       1  ZINC000444542200    0.1000
     33 H33         2.1832    1.1816   59.2087 H       1  ZINC000444542200    0.1300
     34 H34         4.4384    2.5273   58.9726 H       1  ZINC000444542200    0.0700
     35 H35         4.7109    4.1072   58.1993 H       1  ZINC000444542200    0.0700
     36 H36         3.4462    3.9295   59.4392 H       1  ZINC000444542200    0.0900
     37 H37         1.5528    2.5437   55.5622 H       1  ZINC000444542200    0.4100
     38 H38         0.2156    3.0330   54.1148 H       1  ZINC000444542200    0.1400
     39 H39        -1.5487    1.9617   52.7740 H       1  ZINC000444542200    0.1500
     40 H40        -0.9505    0.3626   51.0008 H       1  ZINC000444542200    0.1500
     41 H41         0.8422    4.3769   56.7052 H       1  ZINC000444542200    0.1400
     42 H42        -3.0901    3.8481   58.7293 H       1  ZINC000444542200    0.0600
     43 H43        -3.7368    4.3791   57.1583 H       1  ZINC000444542200    0.1000
     44 H44        -3.2588    2.6810   57.3960 H       1  ZINC000444542200    0.0600
     45 H45        -1.9917    2.0231   58.8691 H       1  ZINC000444542200    0.1400
@<TRIPOS>BOND
     1     1     2    1
     2     1    30    1
     3     1    31    1
     4     1    32    1
     5     2     3    1
     6     3    29   ar
     7     3     4   ar
     8     4     5   ar
     9     4    33    1
    10     5     6    1
    11     5    25   ar
    12     6     7    1
    13     6     8   am
    14     7    34    1
    15     7    35    1
    16     7    36    1
    17     8     9    2
    18     8    10   am
    19    10    11    1
    20    10    37    1
    21    11    12    1
    22    11    13    1
    23    11    21    1
    24    13    19   ar
    25    13    14   ar
    26    14    15   ar
    27    14    38    1
    28    15    16   ar
    29    15    39    1
    30    16    17   ar
    31    16    40    1
    32    17    18    1
    33    17    19   ar
    34    19    20    1
    35    21    22    1
    36    21    23    1
    37    21    24    1
    38    25    26   ar
    39    25    41    1
    40    26    27    1
    41    26    29   ar
    42    27    28    1
    43    28    42    1
    44    28    43    1
    45    28    44    1
    46    29    45    1
@<TRIPOS>SUBSTRUCTURE
     1 ZINC000444542200        1 TEMP              0 ****  ****    0 ROOT


##########                                Name:    ZINC000864477301
##########                DOCK_Rotatable_Bonds:                   6
##########                         Heavy_Atoms:                  26
##########                    Molecular_Weight:             393.891
##########                DOCK_Rotatable_Bonds:                   6
##########                       Formal_Charge:         -0.00999978
##########                     HBond_Acceptors:                   7
##########                        HBond_Donors:                   1
##########                         Heavy_Atoms:                  26
##########                          Grid_Score:          -24.642332
##########                     Grid_vdw_energy:          -23.916588
##########                      Grid_es_energy:           -0.725745
##########           Internal_energy_repulsive:           11.143123

@<TRIPOS>MOLECULE
ZINC000864477301
 46 47 1 0 0
SMALL
USER_CHARGES


@<TRIPOS>ATOM
      1 C1         -7.2875    5.1512   65.1351 C.3     1  ZINC000864477301   -0.1500
      2 C2         -7.3857    3.9768   66.1107 C.3     1  ZINC000864477301    0.0600
      3 O3         -8.7605    3.5143   66.1747 O.3     1  ZINC000864477301   -0.3500
      4 C4         -9.3531    3.1941   65.0081 C.2     1  ZINC000864477301    0.5100
      5 O5        -10.0787    3.9962   64.4553 O.2     1  ZINC000864477301   -0.5000
      6 C6         -9.1207    1.8676   64.4011 C.ar    1  ZINC000864477301   -0.1400
      7 C7         -8.6240    0.8187   65.1771 C.ar    1  ZINC000864477301   -0.0300
      8 C8         -8.4092   -0.4177   64.6037 C.ar    1  ZINC000864477301   -0.1500
      9 C9         -8.6843   -0.6192   63.2630 C.ar    1  ZINC000864477301   -0.0100
     10 C10        -9.1769    0.4161   62.4880 C.ar    1  ZINC000864477301   -0.4900
     11 S11        -9.5238    0.1484   60.7814 S.o     1  ZINC000864477301    1.3800
     12 O12        -9.4401    1.4552   60.2293 O.2     1  ZINC000864477301   -0.8100
     13 C13       -11.2555   -0.3916   60.7969 C.3     1  ZINC000864477301   -0.4600
     14 H14       -11.3334   -1.3472   61.3151 H       1  ZINC000864477301    0.1400
     15 C15       -12.1087    0.6521   61.5205 C.3     1  ZINC000864477301   -0.1400
     16 C16       -11.7460   -0.5468   59.3804 C.2     1  ZINC000864477301    0.5500
     17 O17       -11.1915   -1.3199   58.6280 O.2     1  ZINC000864477301   -0.5100
     18 N18       -12.8006    0.1733   58.9497 N.am    1  ZINC000864477301   -0.6800
     19 C19       -13.2562    0.0290   57.6340 C.ar    1  ZINC000864477301    0.1400
     20 C20       -12.9450    0.9891   56.6809 C.ar    1  ZINC000864477301   -0.0600
     21 C21       -12.1160    2.1886   57.0616 C.3     1  ZINC000864477301   -0.1100
     22 C22       -13.3956    0.8438   55.3830 C.ar    1  ZINC000864477301   -0.1100
     23 C23       -14.1559   -0.2563   55.0322 C.ar    1  ZINC000864477301   -0.1000
     24 C24       -14.4685   -1.2150   55.9789 C.ar    1  ZINC000864477301   -0.1100
     25 C25       -14.0162   -1.0788   57.2775 C.ar    1  ZINC000864477301   -0.0200
     26 Cl26      -14.4083   -2.2825   58.4652 Cl      1  ZINC000864477301   -0.0600
     27 C27        -9.4021    1.6555   63.0498 C.ar    1  ZINC000864477301    0.0100
     28 H28        -7.6088    4.8286   64.1447 H       1  ZINC000864477301    0.0700
     29 H29        -7.9285    5.9633   65.4783 H       1  ZINC000864477301    0.0700
     30 H30        -6.2554    5.4985   65.0871 H       1  ZINC000864477301    0.0800
     31 H31        -6.7447    3.1648   65.7676 H       1  ZINC000864477301    0.0700
     32 H32        -7.0645    4.2994   67.1011 H       1  ZINC000864477301    0.0700
     33 H33        -8.4081    0.9748   66.2237 H       1  ZINC000864477301    0.1400
     34 H34        -8.0249   -1.2300   65.2029 H       1  ZINC000864477301    0.1400
     35 H35        -8.5136   -1.5888   62.8191 H       1  ZINC000864477301    0.1500
     36 H36       -13.1493    0.3276   61.5298 H       1  ZINC000864477301    0.0700
     37 H37       -11.7540    0.7644   62.5451 H       1  ZINC000864477301    0.0700
     38 H38       -12.0309    1.6079   61.0023 H       1  ZINC000864477301    0.0700
     39 H39       -13.2440    0.7916   59.5514 H       1  ZINC000864477301    0.4100
     40 H40       -11.0600    1.9623   56.9135 H       1  ZINC000864477301    0.0800
     41 H41       -12.3966    3.0371   56.4376 H       1  ZINC000864477301    0.0700
     42 H42       -12.2915    2.4341   58.1090 H       1  ZINC000864477301    0.0700
     43 H43       -13.1539    1.5908   54.6414 H       1  ZINC000864477301    0.1400
     44 H44       -14.5067   -0.3672   54.0169 H       1  ZINC000864477301    0.1400
     45 H45       -15.0630   -2.0731   55.7018 H       1  ZINC000864477301    0.1400
     46 H46        -9.7868    2.4626   62.4440 H       1  ZINC000864477301    0.1400
@<TRIPOS>BOND
     1     1     2    1
     2     1    28    1
     3     1    29    1
     4     1    30    1
     5     2     3    1
     6     2    31    1
     7     2    32    1
     8     3     4    1
     9     4     5    2
    10     4     6    1
    11     6    27   ar
    12     6     7   ar
    13     7     8   ar
    14     7    33    1
    15     8     9   ar
    16     8    34    1
    17     9    10   ar
    18     9    35    1
    19    10    11    1
    20    10    27   ar
    21    11    12    2
    22    11    13    1
    23    13    14    1
    24    13    15    1
    25    13    16    1
    26    15    36    1
    27    15    37    1
    28    15    38    1
    29    16    17    2
    30    16    18   am
    31    18    19    1
    32    18    39    1
    33    19    25   ar
    34    19    20   ar
    35    20    21    1
    36    20    22   ar
    37    21    40    1
    38    21    41    1
    39    21    42    1
    40    22    23   ar
    41    22    43    1
    42    23    24   ar
    43    23    44    1
    44    24    25   ar
    45    24    45    1
    46    25    26    1
    47    27    46    1
@<TRIPOS>SUBSTRUCTURE
     1 ZINC000864477301        1 TEMP              0 ****  ****    0 ROOT


##########                                Name:    ZINC000467104849
##########                DOCK_Rotatable_Bonds:                   6
##########                         Heavy_Atoms:                  29
##########                    Molecular_Weight:             421.896
##########                DOCK_Rotatable_Bonds:                   6
##########                       Formal_Charge:           0.0200002
##########                     HBond_Acceptors:                   7
##########                        HBond_Donors:                   0
##########                         Heavy_Atoms:                  29
##########                          Grid_Score:          -24.504498
##########                     Grid_vdw_energy:          -25.734253
##########                      Grid_es_energy:            1.229756
##########           Internal_energy_repulsive:          105.028374

@<TRIPOS>MOLECULE
ZINC000467104849
 54 56 1 0 0
SMALL
USER_CHARGES


@<TRIPOS>ATOM
      1 C1         -8.9105    4.9020   59.3968 C.3     1  ZINC000467104849    0.0200
      2 O2        -10.1709    4.9606   60.0677 O.3     1  ZINC000467104849   -0.3000
      3 C3        -11.0025    3.8957   59.9134 C.ar    1  ZINC000467104849    0.1000
      4 C4        -10.6249    2.8303   59.1127 C.ar    1  ZINC000467104849   -0.1700
      5 C5        -11.4714    1.7481   58.9572 C.ar    1  ZINC000467104849   -0.1200
      6 C6        -12.6954    1.7264   59.5988 C.ar    1  ZINC000467104849   -0.0800
      7 C7        -13.6144    0.5447   59.4255 C.3     1  ZINC000467104849   -0.0400
      8 C8        -14.3973    0.3134   60.7195 C.3     1  ZINC000467104849   -0.1300
      9 C9        -14.5913    0.8219   58.2811 C.3     1  ZINC000467104849   -0.1600
     10 C10       -12.8001   -0.6821   59.1050 C.2     1  ZINC000467104849    0.5300
     11 O11       -13.0211   -1.3086   58.0903 O.2     1  ZINC000467104849   -0.5300
     12 N12       -11.8263   -1.0832   59.9460 N.am    1  ZINC000467104849   -0.6100
     13 C13       -11.0182   -2.2778   59.6543 C.3     1  ZINC000467104849    0.0600
     14 C14        -9.5374   -1.9040   59.7866 C.3     1  ZINC000467104849    0.0500
     15 O15        -9.3199   -1.2849   61.0567 O.3     1  ZINC000467104849   -0.3700
     16 C16       -10.0332   -0.0597   61.2405 C.3     1  ZINC000467104849    0.1300
     17 H17        -9.7624    0.6412   60.4508 H       1  ZINC000467104849    0.0800
     18 C18        -9.6810    0.5317   62.5811 C.ar    1  ZINC000467104849   -0.0900
     19 C19       -10.1575    1.7810   62.9313 C.ar    1  ZINC000467104849   -0.0500
     20 C20        -9.8355    2.3251   64.1606 C.ar    1  ZINC000467104849   -0.1400
     21 C21        -9.0356    1.6184   65.0417 C.ar    1  ZINC000467104849    0.1200
     22 F22        -8.7207    2.1491   66.2435 F       1  ZINC000467104849   -0.1200
     23 C23        -8.5584    0.3656   64.6901 C.ar    1  ZINC000467104849   -0.0800
     24 Cl24       -7.5550   -0.5228   65.7936 Cl      1  ZINC000467104849   -0.0400
     25 C25        -8.8862   -0.1782   63.4617 C.ar    1  ZINC000467104849   -0.0700
     26 C26       -11.5356   -0.3359   61.1798 C.3     1  ZINC000467104849    0.0900
     27 C27       -13.0784    2.7865   60.4000 C.ar    1  ZINC000467104849   -0.1600
     28 C28       -12.2327    3.8714   60.5643 C.ar    1  ZINC000467104849    0.1100
     29 O29       -12.6078    4.9148   61.3518 O.3     1  ZINC000467104849   -0.3000
     30 C30       -11.6894    6.0034   61.4674 C.3     1  ZINC000467104849    0.0200
     31 H31        -8.3466    5.8117   59.6029 H       1  ZINC000467104849    0.1000
     32 H32        -8.3492    4.0381   59.7527 H       1  ZINC000467104849    0.0600
     33 H33        -9.0743    4.8115   58.3230 H       1  ZINC000467104849    0.0600
     34 H34        -9.6693    2.8451   58.6095 H       1  ZINC000467104849    0.1400
     35 H35       -11.1759    0.9181   58.3326 H       1  ZINC000467104849    0.1300
     36 H36       -15.0530    1.1644   60.9046 H       1  ZINC000467104849    0.0700
     37 H37       -14.9959   -0.5927   60.6252 H       1  ZINC000467104849    0.0700
     38 H38       -13.7009    0.2038   61.5510 H       1  ZINC000467104849    0.0700
     39 H39       -14.0404    0.8984   57.3437 H       1  ZINC000467104849    0.0700
     40 H40       -15.3122    0.0072   58.2134 H       1  ZINC000467104849    0.0700
     41 H41       -15.1172    1.7576   58.4709 H       1  ZINC000467104849    0.0700
     42 H42       -11.2620   -3.0683   60.3642 H       1  ZINC000467104849    0.0800
     43 H43       -11.2212   -2.6197   58.6394 H       1  ZINC000467104849    0.1100
     44 H44        -8.9266   -2.8036   59.7106 H       1  ZINC000467104849    0.1100
     45 H45        -9.2648   -1.2098   58.9917 H       1  ZINC000467104849    0.0600
     46 H46       -10.7817    2.3326   62.2439 H       1  ZINC000467104849    0.1500
     47 H47       -10.2077    3.3016   64.4333 H       1  ZINC000467104849    0.1500
     48 H48        -8.5150   -1.1546   63.1873 H       1  ZINC000467104849    0.1500
     49 H49       -12.0824    0.6071   61.1771 H       1  ZINC000467104849    0.1100
     50 H50       -11.8345   -0.9317   62.0423 H       1  ZINC000467104849    0.0800
     51 H51       -14.0352    2.7671   60.9004 H       1  ZINC000467104849    0.1400
     52 H52       -10.7498    5.6431   61.8865 H       1  ZINC000467104849    0.0600
     53 H53       -11.5071    6.4312   60.4815 H       1  ZINC000467104849    0.0600
     54 H54       -12.1106    6.7661   62.1222 H       1  ZINC000467104849    0.1000
@<TRIPOS>BOND
     1     1     2    1
     2     1    31    1
     3     1    32    1
     4     1    33    1
     5     2     3    1
     6     3    28   ar
     7     3     4   ar
     8     4     5   ar
     9     4    34    1
    10     5     6   ar
    11     5    35    1
    12     6     7    1
    13     6    27   ar
    14     7     8    1
    15     7     9    1
    16     7    10    1
    17     8    36    1
    18     8    37    1
    19     8    38    1
    20     9    39    1
    21     9    40    1
    22     9    41    1
    23    10    11    2
    24    10    12   am
    25    12    26    1
    26    12    13    1
    27    13    14    1
    28    13    42    1
    29    13    43    1
    30    14    15    1
    31    14    44    1
    32    14    45    1
    33    15    16    1
    34    16    17    1
    35    16    18    1
    36    16    26    1
    37    18    25   ar
    38    18    19   ar
    39    19    20   ar
    40    19    46    1
    41    20    21   ar
    42    20    47    1
    43    21    22    1
    44    21    23   ar
    45    23    24    1
    46    23    25   ar
    47    25    48    1
    48    26    49    1
    49    26    50    1
    50    27    28   ar
    51    27    51    1
    52    28    29    1
    53    29    30    1
    54    30    52    1
    55    30    53    1
    56    30    54    1
@<TRIPOS>SUBSTRUCTURE
     1 ZINC000467104849        1 TEMP              0 ****  ****    0 ROOT


##########                                Name:    ZINC001009116151
##########                DOCK_Rotatable_Bonds:                   6
##########                         Heavy_Atoms:                  25
##########                    Molecular_Weight:             342.481
##########                DOCK_Rotatable_Bonds:                   6
##########                       Formal_Charge:           0.0600006
##########                     HBond_Acceptors:                   4
##########                        HBond_Donors:                   1
##########                         Heavy_Atoms:                  25
##########                          Grid_Score:          -24.472345
##########                     Grid_vdw_energy:          -23.676674
##########                      Grid_es_energy:           -0.795671
##########           Internal_energy_repulsive:           10.181834

@<TRIPOS>MOLECULE
ZINC001009116151
 55 59 1 0 0
SMALL
USER_CHARGES


@<TRIPOS>ATOM
      1 O1        -13.2007   -0.6733   61.2902 O.2     1  ZINC001009116151   -0.5400
      2 C2        -13.5707   -0.3417   60.1838 C.2     1  ZINC001009116151    0.5200
      3 N3        -13.5722    0.9604   59.8358 N.am    1  ZINC001009116151   -0.7300
      4 C4        -13.1327    1.9757   60.7960 C.3     1  ZINC001009116151    0.1500
      5 C5        -11.6156    2.1478   60.6979 C.3     1  ZINC001009116151   -0.1200
      6 H6        -11.0256    1.4776   61.3232 H       1  ZINC001009116151    0.1100
      7 C7        -11.0791    3.5640   60.4804 C.3     1  ZINC001009116151   -0.1700
      8 H8        -11.7719    4.4053   60.4701 H       1  ZINC001009116151    0.1200
      9 C9         -9.6097    3.8514   60.8574 C.3     1  ZINC001009116151    0.1300
     10 N10        -8.8363    3.4957   59.6448 N.am    1  ZINC001009116151   -0.6200
     11 C11        -7.7753    4.1418   59.1220 C.2     1  ZINC001009116151    0.5500
     12 O12        -7.3491    5.1419   59.6595 O.2     1  ZINC001009116151   -0.5300
     13 C13        -7.1186    3.6213   57.8694 C.3     1  ZINC001009116151   -0.1200
     14 C14        -7.6231    4.3817   56.6211 C.3     1  ZINC001009116151   -0.0900
     15 C15        -6.6225    5.4959   56.4195 C.2     1  ZINC001009116151   -0.1800
     16 C16        -5.5253    5.2690   57.0891 C.2     1  ZINC001009116151   -0.1500
     17 C17        -5.6112    3.9656   57.8488 C.3     1  ZINC001009116151   -0.0900
     18 C18        -9.4938    2.2689   59.1375 C.3     1  ZINC001009116151    0.1200
     19 C19       -11.0363    2.5331   59.3352 C.3     1  ZINC001009116151   -0.1600
     20 H20       -11.6560    2.6002   58.4411 H       1  ZINC001009116151    0.1300
     21 C21       -14.0229   -1.3861   59.1960 C.3     1  ZINC001009116151   -0.0700
     22 C22       -12.7999   -2.0556   58.5658 C.3     1  ZINC001009116151   -0.1100
     23 C23       -13.2590   -3.1159   57.5629 C.3     1  ZINC001009116151   -0.1100
     24 C24       -14.7881   -3.1534   57.5245 C.3     1  ZINC001009116151   -0.0900
     25 C25       -15.3248   -3.4999   58.9147 C.3     1  ZINC001009116151   -0.1100
     26 C26       -14.8657   -2.4396   59.9175 C.3     1  ZINC001009116151   -0.0900
     27 C27       -15.3213   -1.7840   57.0988 C.3     1  ZINC001009116151   -0.1100
     28 C28       -14.8622   -0.7236   58.1017 C.3     1  ZINC001009116151   -0.1000
     29 H29       -13.8644    1.2253   58.9496 H       1  ZINC001009116151    0.4000
     30 H30       -13.6212    2.9238   60.5714 H       1  ZINC001009116151    0.0800
     31 H31       -13.3981    1.6604   61.8051 H       1  ZINC001009116151    0.0700
     32 H32        -9.4780    4.9068   61.0961 H       1  ZINC001009116151    0.0900
     33 H33        -9.3045    3.2294   61.6989 H       1  ZINC001009116151    0.0800
     34 H34        -7.2762    2.5478   57.7647 H       1  ZINC001009116151    0.1100
     35 H35        -7.6360    3.7216   55.7538 H       1  ZINC001009116151    0.0900
     36 H36        -8.6167    4.7918   56.8021 H       1  ZINC001009116151    0.0800
     37 H37        -6.7927    6.3656   55.8023 H       1  ZINC001009116151    0.1300
     38 H38        -4.6684    5.9263   57.0986 H       1  ZINC001009116151    0.1300
     39 H39        -5.2369    4.0928   58.8646 H       1  ZINC001009116151    0.0900
     40 H40        -5.0508    3.1869   57.3315 H       1  ZINC001009116151    0.0900
     41 H41        -9.2746    2.1303   58.0788 H       1  ZINC001009116151    0.0900
     42 H42        -9.1705    1.3998   59.7105 H       1  ZINC001009116151    0.0800
     43 H43       -12.1995   -1.3050   58.0517 H       1  ZINC001009116151    0.0700
     44 H44       -12.2020   -2.5274   59.3455 H       1  ZINC001009116151    0.0700
     45 H45       -12.8767   -2.8689   56.5724 H       1  ZINC001009116151    0.0700
     46 H46       -12.8792   -4.0915   57.8662 H       1  ZINC001009116151    0.0700
     47 H47       -15.1151   -3.9088   56.8100 H       1  ZINC001009116151    0.0700
     48 H48       -16.4142   -3.5267   58.8873 H       1  ZINC001009116151    0.0700
     49 H49       -14.9450   -4.4756   59.2180 H       1  ZINC001009116151    0.0700
     50 H50       -14.2678   -2.9116   60.6972 H       1  ZINC001009116151    0.0700
     51 H51       -15.7370   -1.9627   60.3665 H       1  ZINC001009116151    0.0700
     52 H52       -14.9389   -1.5370   56.1083 H       1  ZINC001009116151    0.0700
     53 H53       -16.4106   -1.8107   57.0714 H       1  ZINC001009116151    0.0700
     54 H54       -15.7335   -0.2467   58.5505 H       1  ZINC001009116151    0.0700
     55 H55       -14.2618    0.0270   57.5875 H       1  ZINC001009116151    0.0700
@<TRIPOS>BOND
     1     1     2    2
     2     2     3   am
     3     2    21    1
     4     3     4    1
     5     3    29    1
     6     4     5    1
     7     4    30    1
     8     4    31    1
     9     5     6    1
    10     5    19    1
    11     5     7    1
    12     7     8    1
    13     7    19    1
    14     7     9    1
    15     9    10    1
    16     9    32    1
    17     9    33    1
    18    10    11   am
    19    10    18    1
    20    11    12    2
    21    11    13    1
    22    13    17    1
    23    13    14    1
    24    13    34    1
    25    14    15    1
    26    14    35    1
    27    14    36    1
    28    15    16    2
    29    15    37    1
    30    16    17    1
    31    16    38    1
    32    17    39    1
    33    17    40    1
    34    18    19    1
    35    18    41    1
    36    18    42    1
    37    19    20    1
    38    21    26    1
    39    21    28    1
    40    21    22    1
    41    22    23    1
    42    22    43    1
    43    22    44    1
    44    23    24    1
    45    23    45    1
    46    23    46    1
    47    24    25    1
    48    24    27    1
    49    24    47    1
    50    25    26    1
    51    25    48    1
    52    25    49    1
    53    26    50    1
    54    26    51    1
    55    27    28    1
    56    27    52    1
    57    27    53    1
    58    28    54    1
    59    28    55    1
@<TRIPOS>SUBSTRUCTURE
     1 ZINC001009116151        1 TEMP              0 ****  ****    0 ROOT


##########                                Name:    ZINC000288921983
##########                DOCK_Rotatable_Bonds:                   6
##########                         Heavy_Atoms:                  26
##########                    Molecular_Weight:             356.428
##########                DOCK_Rotatable_Bonds:                   6
##########                       Formal_Charge:           0.0199997
##########                     HBond_Acceptors:                   8
##########                        HBond_Donors:                   1
##########                         Heavy_Atoms:                  26
##########                          Grid_Score:          -24.370546
##########                     Grid_vdw_energy:          -24.728050
##########                      Grid_es_energy:            0.357504
##########           Internal_energy_repulsive:           59.474659

@<TRIPOS>MOLECULE
ZINC000288921983
 50 53 1 0 0
SMALL
USER_CHARGES


@<TRIPOS>ATOM
      1 C1         -9.3345    3.6541   53.4845 C.3     1  ZINC000288921983   -0.1400
      2 C2         -8.0918    4.1637   54.2173 C.3     1  ZINC000288921983   -0.0500
      3 C3         -8.2940    4.0266   55.7044 C.ar    1  ZINC000288921983    0.3000
      4 N4         -9.4957    4.2256   56.2076 N.ar    1  ZINC000288921983   -0.5000
      5 C5         -9.7144    4.1147   57.5075 C.ar    1  ZINC000288921983    0.1300
      6 C6         -8.6529    3.7830   58.3451 C.ar    1  ZINC000288921983    0.0500
      7 N7         -8.8408    3.6552   59.7265 N.am    1  ZINC000288921983   -0.6700
      8 C8         -9.2706    2.4868   60.2428 C.2     1  ZINC000288921983    0.7100
      9 O9         -9.4953    1.5438   59.5089 O.2     1  ZINC000288921983   -0.5500
     10 N10        -9.4515    2.3637   61.5727 N.am    1  ZINC000288921983   -0.6200
     11 C11        -9.1844    3.4942   62.4723 C.3     1  ZINC000288921983    0.1100
     12 C12       -10.4277    3.7450   63.3315 C.3     1  ZINC000288921983   -0.1400
     13 C13       -10.8174    2.4500   64.0480 C.3     1  ZINC000288921983   -0.1200
     14 C14       -11.1544    1.3741   63.0132 C.3     1  ZINC000288921983   -0.1300
     15 C15        -9.9252    1.0982   62.1498 C.3     1  ZINC000288921983    0.2700
     16 H16        -9.1361    0.6659   62.7650 H       1  ZINC000288921983    0.1100
     17 C17       -10.2882    0.1387   61.0459 C.2     1  ZINC000288921983    0.1700
     18 N18        -9.5311   -0.8068   60.5663 N.2     1  ZINC000288921983   -0.2500
     19 N19       -10.1638   -1.4292   59.6347 N.2     1  ZINC000288921983   -0.2700
     20 C20       -11.3461   -0.9020   59.4884 C.2     1  ZINC000288921983    0.1800
     21 C21       -12.4008   -1.3370   58.5037 C.3     1  ZINC000288921983   -0.0300
     22 C22       -12.8423   -2.7994   58.6799 C.3     1  ZINC000288921983   -0.1200
     23 C23       -13.9016   -2.2786   59.6655 C.3     1  ZINC000288921983   -0.1400
     24 C24       -13.8283   -0.9389   58.9141 C.3     1  ZINC000288921983   -0.1200
     25 O25       -11.4544    0.0975   60.3797 O.3     1  ZINC000288921983   -0.2200
     26 C26        -7.3998    3.5813   57.7729 C.ar    1  ZINC000288921983    0.1600
     27 N27        -7.2650    3.7060   56.4630 N.ar    1  ZINC000288921983   -0.5000
     28 H28        -9.1882    3.7533   52.4089 H       1  ZINC000288921983    0.0700
     29 H29        -9.4989    2.6058   53.7336 H       1  ZINC000288921983    0.0600
     30 H30       -10.2016    4.2403   53.7888 H       1  ZINC000288921983    0.0600
     31 H31        -7.2246    3.5777   53.9130 H       1  ZINC000288921983    0.0900
     32 H32        -7.9274    5.2121   53.9681 H       1  ZINC000288921983    0.0900
     33 H33       -10.7017    4.2796   57.9130 H       1  ZINC000288921983    0.1700
     34 H34        -8.6616    4.4075   60.3120 H       1  ZINC000288921983    0.4100
     35 H35        -8.3374    3.2568   63.1159 H       1  ZINC000288921983    0.0800
     36 H36        -8.9611    4.3843   61.8842 H       1  ZINC000288921983    0.0800
     37 H37       -10.2104    4.5176   64.0690 H       1  ZINC000288921983    0.0900
     38 H38       -11.2504    4.0702   62.6947 H       1  ZINC000288921983    0.0700
     39 H39        -9.9852    2.1120   64.6655 H       1  ZINC000288921983    0.0700
     40 H40       -11.6873    2.6319   64.6792 H       1  ZINC000288921983    0.0800
     41 H41       -11.4544    0.4592   63.5242 H       1  ZINC000288921983    0.0900
     42 H42       -11.9703    1.7216   62.3794 H       1  ZINC000288921983    0.0900
     43 H43       -12.1531   -1.0751   57.4751 H       1  ZINC000288921983    0.1000
     44 H44       -13.2653   -3.2396   57.7768 H       1  ZINC000288921983    0.1000
     45 H45       -12.0857   -3.4309   59.1455 H       1  ZINC000288921983    0.0800
     46 H46       -14.8660   -2.7782   59.5743 H       1  ZINC000288921983    0.0700
     47 H47       -13.5490   -2.2214   60.6954 H       1  ZINC000288921983    0.1000
     48 H48       -13.8677   -0.0683   59.5688 H       1  ZINC000288921983    0.0700
     49 H49       -14.5208   -0.8704   58.0751 H       1  ZINC000288921983    0.1000
     50 H50        -6.5512    3.3230   58.3889 H       1  ZINC000288921983    0.1800
@<TRIPOS>BOND
     1     1     2    1
     2     1    28    1
     3     1    29    1
     4     1    30    1
     5     2     3    1
     6     2    31    1
     7     2    32    1
     8     3    27   ar
     9     3     4   ar
    10     4     5   ar
    11     5     6   ar
    12     5    33    1
    13     6     7    1
    14     6    26   ar
    15     7     8   am
    16     7    34    1
    17     8     9    2
    18     8    10   am
    19    10    15    1
    20    10    11    1
    21    11    12    1
    22    11    35    1
    23    11    36    1
    24    12    13    1
    25    12    37    1
    26    12    38    1
    27    13    14    1
    28    13    39    1
    29    13    40    1
    30    14    15    1
    31    14    41    1
    32    14    42    1
    33    15    16    1
    34    15    17    1
    35    17    25    1
    36    17    18    2
    37    18    19    1
    38    19    20    2
    39    20    21    1
    40    20    25    1
    41    21    24    1
    42    21    22    1
    43    21    43    1
    44    22    23    1
    45    22    44    1
    46    22    45    1
    47    23    24    1
    48    23    46    1
    49    23    47    1
    50    24    48    1
    51    24    49    1
    52    26    27   ar
    53    26    50    1
@<TRIPOS>SUBSTRUCTURE
     1 ZINC000288921983        1 TEMP              0 ****  ****    0 ROOT


##########                                Name:    ZINC001009984555
##########                DOCK_Rotatable_Bonds:                   7
##########                         Heavy_Atoms:                  23
##########                    Molecular_Weight:             338.446
##########                DOCK_Rotatable_Bonds:                   7
##########                       Formal_Charge:           0.0400002
##########                     HBond_Acceptors:                   6
##########                        HBond_Donors:                   1
##########                         Heavy_Atoms:                  23
##########                          Grid_Score:          -24.334492
##########                     Grid_vdw_energy:          -23.069223
##########                      Grid_es_energy:           -1.265267
##########           Internal_energy_repulsive:           14.203614

@<TRIPOS>MOLECULE
ZINC001009984555
 46 47 1 0 0
SMALL
USER_CHARGES


@<TRIPOS>ATOM
      1 C1         -8.6122    5.9546   67.0032 C.3     1  ZINC001009984555   -0.1400
      2 S2         -8.8936    6.1031   65.2174 S.3     1  ZINC001009984555   -0.1800
      3 C3         -7.7604    4.8691   64.5218 C.3     1  ZINC001009984555   -0.1300
      4 C4         -8.1169    3.5043   65.0521 C.2     1  ZINC001009984555    0.5500
      5 O5         -7.6067    3.0990   66.0751 O.2     1  ZINC001009984555   -0.5100
      6 N6         -9.0026    2.7341   64.3897 N.am    1  ZINC001009984555   -0.6100
      7 C7         -9.6884    3.0973   63.1364 C.3     1  ZINC001009984555    0.1000
      8 C8        -10.0640    1.7437   62.4832 C.3     1  ZINC001009984555   -0.1100
      9 H9         -9.2123    1.3151   61.9550 H       1  ZINC001009984555    0.1000
     10 C10       -11.2639    1.9009   61.5469 C.3     1  ZINC001009984555    0.1300
     11 N11       -11.2013    0.8803   60.4976 N.am    1  ZINC001009984555   -0.7300
     12 C12       -11.8853   -0.2726   60.6373 C.2     1  ZINC001009984555    0.5600
     13 O13       -12.5550   -0.4651   61.6332 O.2     1  ZINC001009984555   -0.5200
     14 C14       -11.8208   -1.3032   59.5791 C.ar    1  ZINC001009984555   -0.1200
     15 C15       -12.9239   -1.5313   58.7553 C.ar    1  ZINC001009984555   -0.0900
     16 C16       -12.8587   -2.4944   57.7693 C.ar    1  ZINC001009984555   -0.1000
     17 C17       -11.7032   -3.2342   57.5956 C.ar    1  ZINC001009984555   -0.1200
     18 C18       -10.6035   -3.0136   58.4098 C.ar    1  ZINC001009984555    0.0900
     19 F19        -9.4780   -3.7401   58.2346 F       1  ZINC001009984555   -0.1300
     20 C20       -10.6547   -2.0478   59.3965 C.ar    1  ZINC001009984555   -0.0500
     21 C21        -9.4588   -1.8080   60.2815 C.3     1  ZINC001009984555   -0.1200
     22 C22       -10.4347    0.8908   63.7253 C.3     1  ZINC001009984555   -0.1200
     23 C23        -9.4398    1.3899   64.7940 C.3     1  ZINC001009984555    0.1400
     24 H24        -9.9336    1.4424   65.7644 H       1  ZINC001009984555    0.0800
     25 C25        -8.2407    0.4428   64.8714 C.3     1  ZINC001009984555   -0.1700
     26 H26        -7.5677    6.1724   67.2258 H       1  ZINC001009984555    0.0800
     27 H27        -9.2515    6.6616   67.5318 H       1  ZINC001009984555    0.1100
     28 H28        -8.8484    4.9403   67.3251 H       1  ZINC001009984555    0.0800
     29 H29        -7.8449    4.8701   63.4350 H       1  ZINC001009984555    0.1100
     30 H30        -6.7372    5.1138   64.8069 H       1  ZINC001009984555    0.1100
     31 H31       -10.5862    3.6776   63.3496 H       1  ZINC001009984555    0.0800
     32 H32        -9.0180    3.6592   62.4860 H       1  ZINC001009984555    0.0800
     33 H33       -12.1864    1.7815   62.1153 H       1  ZINC001009984555    0.0800
     34 H34       -11.2428    2.8912   61.0923 H       1  ZINC001009984555    0.0800
     35 H35       -10.6678    1.0345   59.7024 H       1  ZINC001009984555    0.4000
     36 H36       -13.8276   -0.9552   58.8896 H       1  ZINC001009984555    0.1300
     37 H37       -13.7123   -2.6710   57.1316 H       1  ZINC001009984555    0.1400
     38 H38       -11.6579   -3.9873   56.8227 H       1  ZINC001009984555    0.1400
     39 H39        -8.8823   -0.9681   59.8937 H       1  ZINC001009984555    0.0800
     40 H40        -9.7951   -1.5815   61.2933 H       1  ZINC001009984555    0.1000
     41 H41        -8.8339   -2.7009   60.2978 H       1  ZINC001009984555    0.0600
     42 H42       -11.4632    1.0820   64.0313 H       1  ZINC001009984555    0.0900
     43 H43       -10.2817   -0.1696   63.5245 H       1  ZINC001009984555    0.0900
     44 H44        -7.7413    0.4091   63.9030 H       1  ZINC001009984555    0.0600
     45 H45        -7.5427    0.8014   65.6278 H       1  ZINC001009984555    0.0700
     46 H46        -8.5838   -0.5568   65.1382 H       1  ZINC001009984555    0.0700
@<TRIPOS>BOND
     1     1     2    1
     2     1    26    1
     3     1    27    1
     4     1    28    1
     5     2     3    1
     6     3     4    1
     7     3    29    1
     8     3    30    1
     9     4     5    2
    10     4     6   am
    11     6    23    1
    12     6     7    1
    13     7     8    1
    14     7    31    1
    15     7    32    1
    16     8     9    1
    17     8    10    1
    18     8    22    1
    19    10    11    1
    20    10    33    1
    21    10    34    1
    22    11    12   am
    23    11    35    1
    24    12    13    2
    25    12    14    1
    26    14    20   ar
    27    14    15   ar
    28    15    16   ar
    29    15    36    1
    30    16    17   ar
    31    16    37    1
    32    17    18   ar
    33    17    38    1
    34    18    19    1
    35    18    20   ar
    36    20    21    1
    37    21    39    1
    38    21    40    1
    39    21    41    1
    40    22    23    1
    41    22    42    1
    42    22    43    1
    43    23    24    1
    44    23    25    1
    45    25    44    1
    46    25    45    1
    47    25    46    1
@<TRIPOS>SUBSTRUCTURE
     1 ZINC001009984555        1 TEMP              0 ****  ****    0 ROOT


##########                                Name:    ZINC000647468483
##########                DOCK_Rotatable_Bonds:                   5
##########                         Heavy_Atoms:                  24
##########                    Molecular_Weight:             341.373
##########                DOCK_Rotatable_Bonds:                   5
##########                       Formal_Charge:           0.0300004
##########                     HBond_Acceptors:                   6
##########                        HBond_Donors:                   2
##########                         Heavy_Atoms:                  24
##########                          Grid_Score:          -24.309647
##########                     Grid_vdw_energy:          -16.451120
##########                      Grid_es_energy:           -7.858526
##########           Internal_energy_repulsive:           21.419058

@<TRIPOS>MOLECULE
ZINC000647468483
 46 48 1 0 0
SMALL
USER_CHARGES


@<TRIPOS>ATOM
      1 O1        -14.7489    1.9767   61.6781 O.co2   1  ZINC000647468483   -0.6800
      2 C2        -15.2116    2.6775   62.5619 C.2     1  ZINC000647468483    0.5000
      3 O3        -16.3665    2.5229   62.9210 O.co2   1  ZINC000647468483   -0.6900
      4 C4        -14.3541    3.7309   63.2150 C.3     1  ZINC000647468483   -0.1500
      5 H5        -14.9699    4.5427   63.6020 H       1  ZINC000647468483    0.0800
      6 C6        -13.2955    4.2705   62.2214 C.3     1  ZINC000647468483   -0.1100
      7 C7        -12.1727    4.8190   63.1259 C.3     1  ZINC000647468483   -0.1400
      8 C8        -12.2931    4.0827   64.4716 C.3     1  ZINC000647468483    0.0100
      9 H9        -12.4816    4.7973   65.2728 H       1  ZINC000647468483    0.1400
     10 N10       -11.0605    3.3324   64.7468 N.4     1  ZINC000647468483   -0.5000
     11 H11       -11.1721    2.8031   65.5986 H       1  ZINC000647468483    0.4200
     12 H12       -10.8724    2.7023   63.9814 H       1  ZINC000647468483    0.4300
     13 C13        -9.9396    4.2700   64.8960 C.3     1  ZINC000647468483    0.0200
     14 H14        -9.9163    4.9610   64.0534 H       1  ZINC000647468483    0.1500
     15 C15       -10.0777    5.0510   66.2146 C.3     1  ZINC000647468483   -0.1400
     16 C16        -8.8265    4.7223   67.0548 C.3     1  ZINC000647468483   -0.1300
     17 C17        -8.3449    3.3581   66.5013 C.3     1  ZINC000647468483   -0.1300
     18 C18        -8.6091    3.4937   64.9798 C.3     1  ZINC000647468483   -0.0600
     19 H19        -7.8073    4.0570   64.5022 H       1  ZINC000647468483    0.1300
     20 C20        -8.7471    2.1338   64.3452 C.ar    1  ZINC000647468483   -0.1200
     21 C21        -8.2795    1.0128   65.0046 C.ar    1  ZINC000647468483   -0.0700
     22 C22        -8.4060   -0.2348   64.4224 C.ar    1  ZINC000647468483   -0.1000
     23 C23        -9.0005   -0.3610   63.1810 C.ar    1  ZINC000647468483   -0.0600
     24 C24        -9.4690    0.7604   62.5217 C.ar    1  ZINC000647468483   -0.1600
     25 C25       -10.1167    0.6228   61.1679 C.3     1  ZINC000647468483    0.5000
     26 F26       -10.8493   -0.5681   61.1204 F       1  ZINC000647468483   -0.1700
     27 F27       -10.9736    1.7066   60.9487 F       1  ZINC000647468483   -0.1700
     28 F28        -9.1283    0.6021   60.1781 F       1  ZINC000647468483   -0.1700
     29 C29        -9.3463    2.0071   63.1057 C.ar    1  ZINC000647468483   -0.1100
     30 C30       -13.4887    3.1134   64.3413 C.3     1  ZINC000647468483   -0.1200
     31 H31       -12.9185    3.4652   61.5910 H       1  ZINC000647468483    0.0800
     32 H32       -13.7175    5.0687   61.6106 H       1  ZINC000647468483    0.0800
     33 H33       -11.2000    4.6190   62.6765 H       1  ZINC000647468483    0.0700
     34 H34       -12.3026    5.8911   63.2739 H       1  ZINC000647468483    0.1000
     35 H35       -10.1207    6.1212   66.0119 H       1  ZINC000647468483    0.1000
     36 H36       -10.9766    4.7344   66.7437 H       1  ZINC000647468483    0.0900
     37 H37        -8.0600    5.4840   66.9120 H       1  ZINC000647468483    0.0800
     38 H38        -9.0873    4.6352   68.1096 H       1  ZINC000647468483    0.0900
     39 H39        -7.2824    3.2150   66.6974 H       1  ZINC000647468483    0.0900
     40 H40        -8.9302    2.5414   66.9238 H       1  ZINC000647468483    0.0800
     41 H41        -7.8150    1.1115   65.9747 H       1  ZINC000647468483    0.1400
     42 H42        -8.0401   -1.1106   64.9375 H       1  ZINC000647468483    0.1500
     43 H43        -9.0986   -1.3354   62.7259 H       1  ZINC000647468483    0.1500
     44 H44        -9.7122    2.8830   62.5907 H       1  ZINC000647468483    0.1400
     45 H45       -14.0468    3.0680   65.2765 H       1  ZINC000647468483    0.0900
     46 H46       -13.1448    2.1201   64.0527 H       1  ZINC000647468483    0.1000
@<TRIPOS>BOND
     1     1     2   ar
     2     2     3   ar
     3     2     4    1
     4     4     5    1
     5     4    30    1
     6     4     6    1
     7     6     7    1
     8     6    31    1
     9     6    32    1
    10     7     8    1
    11     7    33    1
    12     7    34    1
    13     8     9    1
    14     8    10    1
    15     8    30    1
    16    10    11    1
    17    10    12    1
    18    10    13    1
    19    13    14    1
    20    13    18    1
    21    13    15    1
    22    15    16    1
    23    15    35    1
    24    15    36    1
    25    16    17    1
    26    16    37    1
    27    16    38    1
    28    17    18    1
    29    17    39    1
    30    17    40    1
    31    18    19    1
    32    18    20    1
    33    20    29   ar
    34    20    21   ar
    35    21    22   ar
    36    21    41    1
    37    22    23   ar
    38    22    42    1
    39    23    24   ar
    40    23    43    1
    41    24    25    1
    42    24    29   ar
    43    25    26    1
    44    25    27    1
    45    25    28    1
    46    29    44    1
    47    30    45    1
    48    30    46    1
@<TRIPOS>SUBSTRUCTURE
     1 ZINC000647468483        1 TEMP              0 ****  ****    0 ROOT


##########                                Name:    ZINC000081577146
##########                DOCK_Rotatable_Bonds:                   4
##########                         Heavy_Atoms:                  25
##########                    Molecular_Weight:             355.464
##########                DOCK_Rotatable_Bonds:                   4
##########                       Formal_Charge:                0.02
##########                     HBond_Acceptors:                   7
##########                        HBond_Donors:                   0
##########                         Heavy_Atoms:                  25
##########                          Grid_Score:          -24.304459
##########                     Grid_vdw_energy:          -23.199184
##########                      Grid_es_energy:           -1.105274
##########           Internal_energy_repulsive:           15.550207

@<TRIPOS>MOLECULE
ZINC000081577146
 46 49 1 0 0
SMALL
USER_CHARGES


@<TRIPOS>ATOM
      1 C1         -9.2642    4.5855   62.3516 C.3     1  ZINC000081577146   -0.0700
      2 C2         -9.3568    3.1619   62.8373 C.2     1  ZINC000081577146    0.2900
      3 N3         -9.0896    2.8556   64.0733 N.2     1  ZINC000081577146   -0.4800
      4 S4         -9.3143    1.1751   64.1915 S.3     1  ZINC000081577146    0.1900
      5 C5         -9.7632    0.9801   62.5394 C.2     1  ZINC000081577146    0.2700
      6 N6        -10.1053   -0.1938   61.8927 N.3     1  ZINC000081577146   -0.4300
      7 C7         -8.9793   -0.7052   61.0990 C.3     1  ZINC000081577146    0.0700
      8 C8         -9.3709   -2.0421   60.4653 C.3     1  ZINC000081577146    0.0500
      9 N9        -10.5610   -1.8527   59.6244 N.3     1  ZINC000081577146   -0.5200
     10 C10       -10.9244   -3.0994   58.9377 C.3     1  ZINC000081577146    0.1900
     11 H11       -11.1950   -3.8550   59.6753 H       1  ZINC000081577146    0.0700
     12 C12        -9.7333   -3.5939   58.1145 C.3     1  ZINC000081577146   -0.1500
     13 C13       -12.0961   -2.8468   58.0243 C.2     1  ZINC000081577146    0.1900
     14 N14       -12.9596   -3.7428   57.6358 N.2     1  ZINC000081577146   -0.4500
     15 C15       -13.8599   -3.1585   56.8312 C.2     1  ZINC000081577146   -0.0200
     16 C16       -13.5253   -1.8468   56.7280 C.2     1  ZINC000081577146    0.0000
     17 C17       -14.2359   -0.8154   55.9428 C.ar    1  ZINC000081577146   -0.0200
     18 C18       -13.7689    0.4999   55.9284 C.ar    1  ZINC000081577146   -0.1000
     19 C19       -14.4366    1.4576   55.1932 C.ar    1  ZINC000081577146   -0.1200
     20 C20       -15.5668    1.1167   54.4717 C.ar    1  ZINC000081577146   -0.1100
     21 C21       -16.0351   -0.1851   54.4821 C.ar    1  ZINC000081577146   -0.1100
     22 C22       -15.3733   -1.1537   55.2082 C.ar    1  ZINC000081577146   -0.0900
     23 O23       -12.4212   -1.6639   57.4853 O.3     1  ZINC000081577146   -0.2000
     24 C24       -11.6872   -1.3412   60.4181 C.3     1  ZINC000081577146    0.0600
     25 C25       -11.2955   -0.0043   61.0520 C.3     1  ZINC000081577146    0.0500
     26 N26        -9.7149    2.1921   62.0281 N.2     1  ZINC000081577146   -0.5400
     27 H27       -10.2259    5.0797   62.4891 H       1  ZINC000081577146    0.0900
     28 H28        -8.4994    5.1145   62.9203 H       1  ZINC000081577146    0.0900
     29 H29        -9.0002    4.5922   61.2940 H       1  ZINC000081577146    0.0900
     30 H30        -8.7323    0.0105   60.3149 H       1  ZINC000081577146    0.0700
     31 H31        -8.1140   -0.8491   61.7461 H       1  ZINC000081577146    0.1100
     32 H32        -8.5475   -2.4092   59.8527 H       1  ZINC000081577146    0.1000
     33 H33        -9.5915   -2.7658   61.2500 H       1  ZINC000081577146    0.0600
     34 H34        -9.4627   -2.8385   57.3768 H       1  ZINC000081577146    0.0800
     35 H35        -8.8858   -3.7767   58.7751 H       1  ZINC000081577146    0.0800
     36 H36       -10.0028   -4.5190   57.6049 H       1  ZINC000081577146    0.0700
     37 H37       -14.6982   -3.6432   56.3528 H       1  ZINC000081577146    0.1900
     38 H38       -12.8872    0.7674   56.4918 H       1  ZINC000081577146    0.1300
     39 H39       -14.0763    2.4757   55.1812 H       1  ZINC000081577146    0.1300
     40 H40       -16.0859    1.8703   53.8980 H       1  ZINC000081577146    0.1300
     41 H41       -16.9183   -0.4444   53.9172 H       1  ZINC000081577146    0.1300
     42 H42       -15.7397   -2.1696   55.2151 H       1  ZINC000081577146    0.1300
     43 H43       -12.5524   -1.1973   59.7711 H       1  ZINC000081577146    0.0900
     44 H44       -11.9341   -2.0569   61.2024 H       1  ZINC000081577146    0.0500
     45 H45       -12.1190    0.3628   61.6645 H       1  ZINC000081577146    0.1000
     46 H46       -11.0749    0.7193   60.2673 H       1  ZINC000081577146    0.0800
@<TRIPOS>BOND
     1     1     2    1
     2     1    27    1
     3     1    28    1
     4     1    29    1
     5     2    26    1
     6     2     3    2
     7     3     4    1
     8     4     5    1
     9     5     6    1
    10     5    26    2
    11     6    25    1
    12     6     7    1
    13     7     8    1
    14     7    30    1
    15     7    31    1
    16     8     9    1
    17     8    32    1
    18     8    33    1
    19     9    10    1
    20     9    24    1
    21    10    11    1
    22    10    12    1
    23    10    13    1
    24    12    34    1
    25    12    35    1
    26    12    36    1
    27    13    23    1
    28    13    14    2
    29    14    15    1
    30    15    16    2
    31    15    37    1
    32    16    17    1
    33    16    23    1
    34    17    22   ar
    35    17    18   ar
    36    18    19   ar
    37    18    38    1
    38    19    20   ar
    39    19    39    1
    40    20    21   ar
    41    20    40    1
    42    21    22   ar
    43    21    41    1
    44    22    42    1
    45    24    25    1
    46    24    43    1
    47    24    44    1
    48    25    45    1
    49    25    46    1
@<TRIPOS>SUBSTRUCTURE
     1 ZINC000081577146        1 TEMP              0 ****  ****    0 ROOT


##########                                Name:    ZINC000867639366
##########                DOCK_Rotatable_Bonds:                   6
##########                         Heavy_Atoms:                  25
##########                    Molecular_Weight:             388.509
##########                DOCK_Rotatable_Bonds:                   6
##########                       Formal_Charge:          0.00999961
##########                     HBond_Acceptors:                   9
##########                        HBond_Donors:                   1
##########                         Heavy_Atoms:                  25
##########                          Grid_Score:          -24.241821
##########                     Grid_vdw_energy:          -25.915535
##########                      Grid_es_energy:            1.673713
##########           Internal_energy_repulsive:           39.355579

@<TRIPOS>MOLECULE
ZINC000867639366
 49 51 1 0 0
SMALL
USER_CHARGES


@<TRIPOS>ATOM
      1 C1        -14.3806   -3.4927   57.6988 C.3     1  ZINC000867639366    0.0300
      2 O2        -14.1523   -2.2703   58.4028 O.3     1  ZINC000867639366   -0.3800
      3 C3        -14.6719   -2.2604   59.7339 C.3     1  ZINC000867639366    0.0800
      4 H4        -15.1405   -3.2208   59.9487 H       1  ZINC000867639366    0.0800
      5 C5        -15.7101   -1.1441   59.8687 C.3     1  ZINC000867639366   -0.1400
      6 C6        -15.0614    0.2012   59.5347 C.3     1  ZINC000867639366   -0.1200
      7 C7        -13.9252    0.4756   60.5248 C.3     1  ZINC000867639366    0.1500
      8 H8        -14.3354    0.5966   61.5273 H       1  ZINC000867639366    0.0800
      9 C9        -13.1853    1.7509   60.1160 C.3     1  ZINC000867639366   -0.1900
     10 N10       -12.9968   -0.6631   60.5066 N.am    1  ZINC000867639366   -0.9800
     11 S11       -11.3787   -0.4283   60.2439 S.o2    1  ZINC000867639366    2.6900
     12 O12       -10.7534   -1.6894   60.4389 O.2     1  ZINC000867639366   -0.9500
     13 O13       -11.2717    0.3138   59.0369 O.2     1  ZINC000867639366   -0.9400
     14 C14       -10.7889    0.6234   61.5286 C.ar    1  ZINC000867639366   -0.6300
     15 C15       -11.3170    0.5217   62.8021 C.ar    1  ZINC000867639366   -0.0500
     16 C16       -10.8542    1.3468   63.8101 C.ar    1  ZINC000867639366   -0.0400
     17 C17        -9.8632    2.2732   63.5448 C.ar    1  ZINC000867639366   -0.6300
     18 S18        -9.2737    3.3252   64.8294 S.o2    1  ZINC000867639366    2.7000
     19 O19        -8.7743    4.4938   64.1937 O.2     1  ZINC000867639366   -0.9400
     20 O20       -10.2902    3.3546   65.8221 O.2     1  ZINC000867639366   -0.9500
     21 N21        -7.9688    2.5737   65.5185 N.am    1  ZINC000867639366   -1.0800
     22 C22        -8.1253    1.2549   66.1367 C.3     1  ZINC000867639366    0.0800
     23 C23        -7.9604    0.0287   65.2366 C.3     1  ZINC000867639366   -0.1800
     24 C24        -6.8767    0.3789   66.2582 C.3     1  ZINC000867639366   -0.1900
     25 C25        -9.3341    2.3738   62.2717 C.ar    1  ZINC000867639366   -0.0400
     26 C26        -9.7941    1.5461   61.2646 C.ar    1  ZINC000867639366   -0.0400
     27 C27       -13.5312   -2.0147   60.7263 C.3     1  ZINC000867639366    0.1200
     28 H28       -13.9067   -4.3147   58.2352 H       1  ZINC000867639366    0.0400
     29 H29       -15.4527   -3.6758   57.6268 H       1  ZINC000867639366    0.0400
     30 H30       -13.9564   -3.4198   56.6973 H       1  ZINC000867639366    0.0900
     31 H31       -16.5349   -1.3303   59.1809 H       1  ZINC000867639366    0.0700
     32 H32       -16.0880   -1.1211   60.8908 H       1  ZINC000867639366    0.0700
     33 H33       -14.6614    0.1705   58.5212 H       1  ZINC000867639366    0.0800
     34 H34       -15.8070    0.9929   59.6081 H       1  ZINC000867639366    0.0800
     35 H35       -13.8404    2.6111   60.2541 H       1  ZINC000867639366    0.0700
     36 H36       -12.2956    1.8688   60.7344 H       1  ZINC000867639366    0.0600
     37 H37       -12.8930    1.6814   59.0682 H       1  ZINC000867639366    0.1000
     38 H38       -12.0914   -0.2020   63.0095 H       1  ZINC000867639366    0.1600
     39 H39       -11.2674    1.2679   64.8049 H       1  ZINC000867639366    0.1500
     40 H40        -7.1009    3.0068   65.5128 H       1  ZINC000867639366    0.4200
     41 H41        -8.8614    1.1958   66.9384 H       1  ZINC000867639366    0.1400
     42 H42        -8.5884   -0.8373   65.4458 H       1  ZINC000867639366    0.1100
     43 H43        -7.7356    0.2034   64.1844 H       1  ZINC000867639366    0.1000
     44 H44        -5.9388    0.7840   65.8781 H       1  ZINC000867639366    0.1000
     45 H45        -6.7915   -0.2566   67.1395 H       1  ZINC000867639366    0.1000
     46 H46        -8.5595    3.0973   62.0645 H       1  ZINC000867639366    0.1500
     47 H47        -9.3808    1.6248   60.2699 H       1  ZINC000867639366    0.1500
     48 H48       -13.9092   -2.0969   61.7454 H       1  ZINC000867639366    0.0900
     49 H49       -12.7425   -2.7499   60.5667 H       1  ZINC000867639366    0.1000
@<TRIPOS>BOND
     1     1     2    1
     2     1    28    1
     3     1    29    1
     4     1    30    1
     5     2     3    1
     6     3     4    1
     7     3    27    1
     8     3     5    1
     9     5     6    1
    10     5    31    1
    11     5    32    1
    12     6     7    1
    13     6    33    1
    14     6    34    1
    15     7     8    1
    16     7     9    1
    17     7    10    1
    18     9    35    1
    19     9    36    1
    20     9    37    1
    21    10    11   am
    22    10    27    1
    23    11    12    2
    24    11    13    2
    25    11    14    1
    26    14    26   ar
    27    14    15   ar
    28    15    16   ar
    29    15    38    1
    30    16    17   ar
    31    16    39    1
    32    17    18    1
    33    17    25   ar
    34    18    19    2
    35    18    20    2
    36    18    21   am
    37    21    22    1
    38    21    40    1
    39    22    24    1
    40    22    23    1
    41    22    41    1
    42    23    24    1
    43    23    42    1
    44    23    43    1
    45    24    44    1
    46    24    45    1
    47    25    26   ar
    48    25    46    1
    49    26    47    1
    50    27    48    1
    51    27    49    1
@<TRIPOS>SUBSTRUCTURE
     1 ZINC000867639366        1 TEMP              0 ****  ****    0 ROOT


##########                                Name:    ZINC000130059363
##########                DOCK_Rotatable_Bonds:                   4
##########                         Heavy_Atoms:                  29
##########                    Molecular_Weight:             389.497
##########                DOCK_Rotatable_Bonds:                   4
##########                       Formal_Charge:          -0.0100003
##########                     HBond_Acceptors:                   5
##########                        HBond_Donors:                   0
##########                         Heavy_Atoms:                  29
##########                          Grid_Score:          -24.230881
##########                     Grid_vdw_energy:          -24.239811
##########                      Grid_es_energy:            0.008931
##########           Internal_energy_repulsive:           28.836369

@<TRIPOS>MOLECULE
ZINC000130059363
 56 60 1 0 0
SMALL
USER_CHARGES


@<TRIPOS>ATOM
      1 C1        -11.8117    2.2545   63.0947 C.3     1  ZINC000130059363   -0.1200
      2 C2        -10.7236    2.9191   62.2914 C.ar    1  ZINC000130059363    0.1900
      3 N3         -9.7291    3.5155   62.9113 N.ar    1  ZINC000130059363   -0.4800
      4 C4         -8.7482    4.1137   62.2454 C.ar    1  ZINC000130059363    0.2000
      5 C5         -7.6505    4.7709   62.9938 C.ar    1  ZINC000130059363   -0.0600
      6 C6         -7.6473    4.7559   64.3881 C.ar    1  ZINC000130059363   -0.1000
      7 C7         -6.6224    5.3690   65.0795 C.ar    1  ZINC000130059363   -0.1200
      8 C8         -5.5999    5.9980   64.3920 C.ar    1  ZINC000130059363   -0.1000
      9 C9         -5.5981    6.0165   63.0087 C.ar    1  ZINC000130059363   -0.1300
     10 C10        -6.6143    5.4014   62.3064 C.ar    1  ZINC000130059363   -0.0700
     11 C11        -8.7373    4.1313   60.8508 C.ar    1  ZINC000130059363   -0.1800
     12 C12        -9.7633    3.5165   60.1609 C.ar    1  ZINC000130059363   -0.0400
     13 C13       -10.7791    2.8903   60.8961 C.ar    1  ZINC000130059363   -0.1900
     14 C14       -11.8983    2.2184   60.2050 C.2     1  ZINC000130059363    0.5700
     15 O15       -12.9457    2.8094   60.0273 O.2     1  ZINC000130059363   -0.5200
     16 N16       -11.7583    0.9500   59.7713 N.am    1  ZINC000130059363   -0.6000
     17 C17       -10.5014    0.2178   59.9828 C.3     1  ZINC000130059363    0.1000
     18 C18       -10.8210   -1.0931   60.7074 C.3     1  ZINC000130059363   -0.1500
     19 C19       -11.8777   -1.8697   59.9301 C.3     1  ZINC000130059363    0.1500
     20 H20       -12.1109   -2.7769   60.4876 H       1  ZINC000130059363    0.0700
     21 C21       -13.1614   -1.0537   59.7915 C.3     1  ZINC000130059363   -0.1100
     22 H22       -13.5953   -0.8692   60.7742 H       1  ZINC000130059363    0.1000
     23 C23       -14.1432   -1.8566   58.9233 C.3     1  ZINC000130059363   -0.1200
     24 C24       -13.5837   -1.9166   57.4997 C.3     1  ZINC000130059363   -0.1400
     25 C25       -12.1389   -2.3243   57.5272 C.2     1  ZINC000130059363    0.5200
     26 O26       -11.6347   -2.7212   56.4981 O.2     1  ZINC000130059363   -0.5400
     27 N27       -11.3849   -2.2587   58.6182 N.am    1  ZINC000130059363   -0.5700
     28 C28        -9.9717   -2.6282   58.5062 C.3     1  ZINC000130059363    0.0700
     29 C29        -9.4453   -3.7044   59.4579 C.3     1  ZINC000130059363   -0.1800
     30 C30        -9.6468   -4.0261   57.9758 C.3     1  ZINC000130059363   -0.1600
     31 C31       -12.8599    0.2664   59.0825 C.3     1  ZINC000130059363    0.1100
     32 H32       -11.5897    1.1923   63.1980 H       1  ZINC000130059363    0.0800
     33 H33       -11.8652    2.7122   64.0825 H       1  ZINC000130059363    0.0800
     34 H34       -12.7670    2.3782   62.5847 H       1  ZINC000130059363    0.1000
     35 H35        -8.4454    4.2658   64.9259 H       1  ZINC000130059363    0.1300
     36 H36        -6.6187    5.3581   66.1594 H       1  ZINC000130059363    0.1300
     37 H37        -4.8000    6.4769   64.9373 H       1  ZINC000130059363    0.1300
     38 H38        -4.7973    6.5094   62.4774 H       1  ZINC000130059363    0.1300
     39 H39        -6.6119    5.4164   61.2265 H       1  ZINC000130059363    0.1400
     40 H40        -7.9360    4.6203   60.3169 H       1  ZINC000130059363    0.1400
     41 H41        -9.7808    3.5148   59.0810 H       1  ZINC000130059363    0.1400
     42 H42       -10.0364    0.0015   59.0209 H       1  ZINC000130059363    0.0700
     43 H43        -9.8249    0.8180   60.5913 H       1  ZINC000130059363    0.0900
     44 H44        -9.9148   -1.6938   60.7861 H       1  ZINC000130059363    0.0900
     45 H45       -11.1957   -0.8725   61.7069 H       1  ZINC000130059363    0.0800
     46 H46       -14.2452   -2.8662   59.3212 H       1  ZINC000130059363    0.0800
     47 H47       -15.1154   -1.3637   58.9158 H       1  ZINC000130059363    0.0900
     48 H48       -14.1527   -2.6423   56.9185 H       1  ZINC000130059363    0.1000
     49 H49       -13.6732   -0.9349   57.0349 H       1  ZINC000130059363    0.1000
     50 H50        -9.2938   -1.8180   58.2379 H       1  ZINC000130059363    0.1100
     51 H51        -8.4209   -3.6023   59.8159 H       1  ZINC000130059363    0.1100
     52 H52       -10.1505   -4.1375   60.1673 H       1  ZINC000130059363    0.1000
     53 H53       -10.4846   -4.6707   57.7100 H       1  ZINC000130059363    0.1000
     54 H54        -8.7550   -4.1355   57.3587 H       1  ZINC000130059363    0.1000
     55 H55       -13.7478    0.8984   59.0964 H       1  ZINC000130059363    0.1000
     56 H56       -12.5691    0.0677   58.0510 H       1  ZINC000130059363    0.0700
@<TRIPOS>BOND
     1     1     2    1
     2     1    32    1
     3     1    33    1
     4     1    34    1
     5     2    13   ar
     6     2     3   ar
     7     3     4   ar
     8     4     5    1
     9     4    11   ar
    10     5    10   ar
    11     5     6   ar
    12     6     7   ar
    13     6    35    1
    14     7     8   ar
    15     7    36    1
    16     8     9   ar
    17     8    37    1
    18     9    10   ar
    19     9    38    1
    20    10    39    1
    21    11    12   ar
    22    11    40    1
    23    12    13   ar
    24    12    41    1
    25    13    14    1
    26    14    15    2
    27    14    16   am
    28    16    31    1
    29    16    17    1
    30    17    18    1
    31    17    42    1
    32    17    43    1
    33    18    19    1
    34    18    44    1
    35    18    45    1
    36    19    20    1
    37    19    27    1
    38    19    21    1
    39    21    22    1
    40    21    23    1
    41    21    31    1
    42    23    24    1
    43    23    46    1
    44    23    47    1
    45    24    25    1
    46    24    48    1
    47    24    49    1
    48    25    26    2
    49    25    27   am
    50    27    28    1
    51    28    30    1
    52    28    29    1
    53    28    50    1
    54    29    30    1
    55    29    51    1
    56    29    52    1
    57    30    53    1
    58    30    54    1
    59    31    55    1
    60    31    56    1
@<TRIPOS>SUBSTRUCTURE
     1 ZINC000130059363        1 TEMP              0 ****  ****    0 ROOT


##########                                Name:    ZINC000373864439
##########                DOCK_Rotatable_Bonds:                   7
##########                         Heavy_Atoms:                  23
##########                    Molecular_Weight:              344.45
##########                DOCK_Rotatable_Bonds:                   7
##########                       Formal_Charge:          -0.0300001
##########                     HBond_Acceptors:                   7
##########                        HBond_Donors:                   1
##########                         Heavy_Atoms:                  23
##########                          Grid_Score:          -24.229809
##########                     Grid_vdw_energy:          -22.388149
##########                      Grid_es_energy:           -1.841659
##########           Internal_energy_repulsive:           22.781580

@<TRIPOS>MOLECULE
ZINC000373864439
 48 49 1 0 0
SMALL
USER_CHARGES


@<TRIPOS>ATOM
      1 C1         -4.6349   -3.6679   57.7508 C.3     1  ZINC000373864439   -0.1500
      2 C2         -6.1202   -3.4949   58.0749 C.3     1  ZINC000373864439   -0.6300
      3 S3         -7.1167   -4.0950   56.6829 S.o2    1  ZINC000373864439    2.6100
      4 O4         -6.8142   -3.3650   55.5019 O.2     1  ZINC000373864439   -0.9500
      5 O5         -7.1590   -5.5153   56.6756 O.2     1  ZINC000373864439   -0.9600
      6 N6         -8.6649   -3.6422   57.0576 N.am    1  ZINC000373864439   -1.1200
      7 C7         -9.2958   -4.1355   58.2843 C.3     1  ZINC000373864439    0.1100
      8 C8        -10.5344   -3.2929   58.5952 C.3     1  ZINC000373864439    0.0500
      9 N9        -10.1180   -1.9746   59.0916 N.3     1  ZINC000373864439   -0.5300
     10 C10        -9.6051   -2.0672   60.4645 C.3     1  ZINC000373864439    0.0400
     11 C11        -9.0479   -0.7084   60.8950 C.3     1  ZINC000373864439   -0.1300
     12 C12       -10.1589    0.3420   60.8149 C.3     1  ZINC000373864439    0.1800
     13 F13       -11.1868    0.0038   61.7018 F       1  ZINC000373864439   -0.2100
     14 C14        -9.6018    1.6934   61.1817 C.ar    1  ZINC000373864439   -0.1500
     15 C15        -9.2681    2.5957   60.1906 C.ar    1  ZINC000373864439   -0.0700
     16 C16        -8.7565    3.8358   60.5266 C.ar    1  ZINC000373864439   -0.1600
     17 C17        -8.5780    4.1758   61.8545 C.ar    1  ZINC000373864439   -0.0700
     18 C18        -8.9106    3.2769   62.8498 C.ar    1  ZINC000373864439   -0.2100
     19 C19        -9.4290    2.0345   62.5156 C.ar    1  ZINC000373864439    0.1400
     20 O20        -9.7570    1.1486   63.4925 O.3     1  ZINC000373864439   -0.3100
     21 C21       -10.5110    1.6511   64.5975 C.3     1  ZINC000373864439    0.0200
     22 C22       -10.7087    0.3843   59.3865 C.3     1  ZINC000373864439   -0.1300
     23 C23       -11.2179   -1.0061   58.9998 C.3     1  ZINC000373864439    0.0600
     24 H24        -4.3895   -3.0967   56.8554 H       1  ZINC000373864439    0.0700
     25 H25        -4.0362   -3.3074   58.5872 H       1  ZINC000373864439    0.0800
     26 H26        -4.4210   -4.7227   57.5788 H       1  ZINC000373864439    0.0700
     27 H27        -6.3656   -4.0662   58.9702 H       1  ZINC000373864439    0.1300
     28 H28        -6.3342   -2.4401   58.2468 H       1  ZINC000373864439    0.1300
     29 H29        -9.1540   -3.0503   56.4648 H       1  ZINC000373864439    0.4200
     30 H30        -9.5891   -5.1766   58.1487 H       1  ZINC000373864439    0.0700
     31 H31        -8.5894   -4.0618   59.1112 H       1  ZINC000373864439    0.0900
     32 H32       -11.1268   -3.1693   57.6885 H       1  ZINC000373864439    0.0900
     33 H33       -11.1338   -3.7945   59.3551 H       1  ZINC000373864439    0.0400
     34 H34       -10.4137   -2.3571   61.1354 H       1  ZINC000373864439    0.0400
     35 H35        -8.8128   -2.8145   60.5066 H       1  ZINC000373864439    0.0900
     36 H36        -8.6815   -0.7734   61.9195 H       1  ZINC000373864439    0.0800
     37 H37        -8.2300   -0.4242   60.2328 H       1  ZINC000373864439    0.1000
     38 H38        -9.4065    2.3324   59.1524 H       1  ZINC000373864439    0.1300
     39 H39        -8.4955    4.5396   59.7501 H       1  ZINC000373864439    0.1300
     40 H40        -8.1779    5.1447   62.1144 H       1  ZINC000373864439    0.1300
     41 H41        -8.7707    3.5429   63.8871 H       1  ZINC000373864439    0.1300
     42 H42       -10.7048    0.8429   65.3028 H       1  ZINC000373864439    0.1000
     43 H43        -9.9455    2.4393   65.0948 H       1  ZINC000373864439    0.0600
     44 H44       -11.4576    2.0545   64.2380 H       1  ZINC000373864439    0.0600
     45 H45       -11.5292    1.1001   59.3334 H       1  ZINC000373864439    0.0800
     46 H46        -9.9170    0.6857   58.7007 H       1  ZINC000373864439    0.1000
     47 H47       -11.5970   -0.9828   57.9781 H       1  ZINC000373864439    0.0800
     48 H48       -12.0190   -1.3010   59.6775 H       1  ZINC000373864439    0.0400
@<TRIPOS>BOND
     1     1     2    1
     2     1    24    1
     3     1    25    1
     4     1    26    1
     5     2     3    1
     6     2    27    1
     7     2    28    1
     8     3     4    2
     9     3     5    2
    10     3     6   am
    11     6     7    1
    12     6    29    1
    13     7     8    1
    14     7    30    1
    15     7    31    1
    16     8     9    1
    17     8    32    1
    18     8    33    1
    19     9    23    1
    20     9    10    1
    21    10    11    1
    22    10    34    1
    23    10    35    1
    24    11    12    1
    25    11    36    1
    26    11    37    1
    27    12    13    1
    28    12    14    1
    29    12    22    1
    30    14    19   ar
    31    14    15   ar
    32    15    16   ar
    33    15    38    1
    34    16    17   ar
    35    16    39    1
    36    17    18   ar
    37    17    40    1
    38    18    19   ar
    39    18    41    1
    40    19    20    1
    41    20    21    1
    42    21    42    1
    43    21    43    1
    44    21    44    1
    45    22    23    1
    46    22    45    1
    47    22    46    1
    48    23    47    1
    49    23    48    1
@<TRIPOS>SUBSTRUCTURE
     1 ZINC000373864439        1 TEMP              0 ****  ****    0 ROOT


##########                                Name:    ZINC001039666729
##########                DOCK_Rotatable_Bonds:                   3
##########                         Heavy_Atoms:                  25
##########                    Molecular_Weight:             344.376
##########                DOCK_Rotatable_Bonds:                   3
##########                       Formal_Charge:          -0.0199998
##########                     HBond_Acceptors:                  10
##########                        HBond_Donors:                   2
##########                         Heavy_Atoms:                  25
##########                          Grid_Score:          -24.122374
##########                     Grid_vdw_energy:          -20.302778
##########                      Grid_es_energy:           -3.819595
##########           Internal_energy_repulsive:           67.418884

@<TRIPOS>MOLECULE
ZINC001039666729
 45 47 1 0 0
SMALL
USER_CHARGES


@<TRIPOS>ATOM
      1 C1         -8.9127    3.6912   65.7173 C.3     1  ZINC001039666729   -0.1100
      2 C2         -8.8869    3.8912   64.2238 C.ar    1  ZINC001039666729    0.2200
      3 C3         -7.7416    4.3577   63.5984 C.ar    1  ZINC001039666729   -0.3000
      4 C4         -7.7601    4.5277   62.2228 C.ar    1  ZINC001039666729    0.1900
      5 N5         -8.8637    4.2415   61.5521 N.ar    1  ZINC001039666729   -0.5800
      6 C6         -9.9422    3.7971   62.1807 C.ar    1  ZINC001039666729    0.6000
      7 N7        -11.0798    3.5068   61.4477 N.pl3   1  ZINC001039666729   -0.5900
      8 C8        -11.4618    4.2193   60.1903 C.3     1  ZINC001039666729    0.1200
      9 C9        -10.6438    3.6193   59.0445 C.3     1  ZINC001039666729    0.0900
     10 N10       -11.0114    2.1881   58.9060 N.am    1  ZINC001039666729   -0.7400
     11 C11       -10.1478    1.3190   59.5190 C.2     1  ZINC001039666729    0.5200
     12 O12        -9.1749    1.7290   60.1158 O.2     1  ZINC001039666729   -0.5200
     13 C13       -10.4344   -0.1582   59.4352 C.3     1  ZINC001039666729   -0.1500
     14 C14       -10.6357   -0.7195   60.8443 C.3     1  ZINC001039666729    0.1100
     15 N15       -11.7277    0.0446   61.5011 N.am    1  ZINC001039666729   -0.6100
     16 C16       -13.0258   -0.3003   61.3904 C.2     1  ZINC001039666729    0.6100
     17 O17       -13.8802    0.3609   61.9476 O.2     1  ZINC001039666729   -0.5200
     18 C18       -13.4107   -1.4828   60.5914 C.2     1  ZINC001039666729   -0.0400
     19 N19       -14.5639   -2.1331   60.6268 N.2     1  ZINC001039666729   -0.2500
     20 N20       -14.5115   -3.1038   59.7851 N.pl3   1  ZINC001039666729   -0.2300
     21 N21       -13.3753   -3.1357   59.1855 N.2     1  ZINC001039666729   -0.2800
     22 C22       -12.6299   -2.1515   59.6275 C.2     1  ZINC001039666729    0.0400
     23 C23       -11.2742    1.2192   62.2902 C.3     1  ZINC001039666729    0.1100
     24 C24       -12.0596    2.4418   61.8224 C.3     1  ZINC001039666729    0.1300
     25 N25        -9.9556    3.6185   63.4933 N.ar    1  ZINC001039666729   -0.5700
     26 H26        -8.5882    2.6779   65.9538 H       1  ZINC001039666729    0.0800
     27 H27        -8.2418    4.4075   66.1915 H       1  ZINC001039666729    0.0800
     28 H28        -9.9268    3.8435   66.0868 H       1  ZINC001039666729    0.0800
     29 H29        -6.8540    4.5843   64.1704 H       1  ZINC001039666729    0.1400
     30 H30        -6.8844    4.8899   61.7049 H       1  ZINC001039666729    0.1600
     31 H31       -12.5254    4.0809   59.9962 H       1  ZINC001039666729    0.0800
     32 H32       -11.2386    5.2820   60.2859 H       1  ZINC001039666729    0.0900
     33 H33       -10.8680    4.1474   58.1178 H       1  ZINC001039666729    0.0800
     34 H34        -9.5805    3.7052   59.2684 H       1  ZINC001039666729    0.1000
     35 H35       -11.7981    1.8925   58.4213 H       1  ZINC001039666729    0.4100
     36 H36       -11.3377   -0.3203   58.8471 H       1  ZINC001039666729    0.0800
     37 H37        -9.5950   -0.6647   58.9588 H       1  ZINC001039666729    0.1100
     38 H38       -10.9092   -1.7729   60.7843 H       1  ZINC001039666729    0.1100
     39 H39        -9.7151   -0.6108   61.4178 H       1  ZINC001039666729    0.0900
     40 H40       -15.2346   -3.7300   59.6242 H       1  ZINC001039666729    0.4700
     41 H41       -11.6231   -1.9082   59.3216 H       1  ZINC001039666729    0.2100
     42 H42       -11.4597    1.0435   63.3499 H       1  ZINC001039666729    0.0800
     43 H43       -10.2092    1.3831   62.1256 H       1  ZINC001039666729    0.1200
     44 H44       -12.6978    2.8011   62.6295 H       1  ZINC001039666729    0.0700
     45 H45       -12.6694    2.1796   60.9578 H       1  ZINC001039666729    0.0900
@<TRIPOS>BOND
     1     1     2    1
     2     1    26    1
     3     1    27    1
     4     1    28    1
     5     2    25   ar
     6     2     3   ar
     7     3     4   ar
     8     3    29    1
     9     4     5   ar
    10     4    30    1
    11     5     6   ar
    12     6     7    1
    13     6    25   ar
    14     7    24    1
    15     7     8    1
    16     8     9    1
    17     8    31    1
    18     8    32    1
    19     9    10    1
    20     9    33    1
    21     9    34    1
    22    10    11   am
    23    10    35    1
    24    11    12    2
    25    11    13    1
    26    13    14    1
    27    13    36    1
    28    13    37    1
    29    14    15    1
    30    14    38    1
    31    14    39    1
    32    15    16   am
    33    15    23    1
    34    16    17    2
    35    16    18    1
    36    18    22    1
    37    18    19    2
    38    19    20    1
    39    20    21    1
    40    20    40    1
    41    21    22    2
    42    22    41    1
    43    23    24    1
    44    23    42    1
    45    23    43    1
    46    24    44    1
    47    24    45    1
@<TRIPOS>SUBSTRUCTURE
     1 ZINC001039666729        1 TEMP              0 ****  ****    0 ROOT


##########                                Name:    ZINC000004040798
##########                DOCK_Rotatable_Bonds:                   3
##########                         Heavy_Atoms:                  22
##########                    Molecular_Weight:             361.151
##########                DOCK_Rotatable_Bonds:                   3
##########                       Formal_Charge:           0.0200003
##########                     HBond_Acceptors:                   6
##########                        HBond_Donors:                   1
##########                         Heavy_Atoms:                  22
##########                          Grid_Score:          -24.119061
##########                     Grid_vdw_energy:          -23.790627
##########                      Grid_es_energy:           -0.328435
##########           Internal_energy_repulsive:            2.038302

@<TRIPOS>MOLECULE
ZINC000004040798
 31 33 1 0 0
SMALL
USER_CHARGES


@<TRIPOS>ATOM
      1 O1         -8.2976    2.5612   59.5814 O.2     1  ZINC000004040798   -0.4800
      2 C2         -9.4512    2.3121   59.2856 C.2     1  ZINC000004040798    0.6100
      3 N3        -10.2393    1.6433   60.1505 N.am    1  ZINC000004040798   -0.6600
      4 C4         -9.7295    1.2307   61.3857 C.ar    1  ZINC000004040798    0.2300
      5 C5         -9.5056    2.1609   62.3920 C.ar    1  ZINC000004040798   -0.1300
      6 C6         -9.0018    1.7501   63.6109 C.ar    1  ZINC000004040798   -0.0100
      7 C7         -8.7202    0.4144   63.8300 C.ar    1  ZINC000004040798   -0.0600
      8 N8         -8.1805   -0.0216   65.1375 N.pl3   1  ZINC000004040798    0.0300
      9 O9         -7.9848    0.7959   66.0189 O.2     1  ZINC000004040798   -0.1500
     10 O10        -7.9320   -1.1981   65.3320 O.2     1  ZINC000004040798   -0.1500
     11 C11        -8.9422   -0.5154   62.8305 C.ar    1  ZINC000004040798    0.0000
     12 C12        -9.4509   -0.1124   61.6107 C.ar    1  ZINC000004040798   -0.1400
     13 Br13       -9.7542   -1.3841   60.2445 Br      1  ZINC000004040798    0.0000
     14 C14        -9.9869    2.7457   57.9879 C.2     1  ZINC000004040798   -0.0500
     15 C15        -9.2900    3.4297   57.0437 C.2     1  ZINC000004040798   -0.0800
     16 C16       -10.2159    3.6428   55.9319 C.ar    1  ZINC000004040798   -0.1500
     17 C17       -10.1148    4.2674   54.6868 C.ar    1  ZINC000004040798   -0.0500
     18 C18       -11.1974    4.2954   53.8532 C.ar    1  ZINC000004040798   -0.1400
     19 C19       -12.3952    3.7081   54.2362 C.ar    1  ZINC000004040798   -0.0700
     20 C20       -12.5156    3.0868   55.4606 C.ar    1  ZINC000004040798   -0.1100
     21 C21       -11.4281    3.0451   56.3252 C.ar    1  ZINC000004040798    0.0800
     22 O22       -11.2438    2.5193   57.5518 O.3     1  ZINC000004040798   -0.1900
     23 H23       -11.1602    1.4484   59.9163 H       1  ZINC000004040798    0.4300
     24 H24        -9.7248    3.2047   62.2217 H       1  ZINC000004040798    0.1800
     25 H25        -8.8272    2.4735   64.3936 H       1  ZINC000004040798    0.1700
     26 H26        -8.7212   -1.5581   63.0048 H       1  ZINC000004040798    0.1700
     27 H27        -8.2607    3.7515   57.1024 H       1  ZINC000004040798    0.1800
     28 H28        -9.1852    4.7265   54.3842 H       1  ZINC000004040798    0.1400
     29 H29       -11.1205    4.7781   52.8902 H       1  ZINC000004040798    0.1400
     30 H30       -13.2427    3.7386   53.5673 H       1  ZINC000004040798    0.1400
     31 H31       -13.4526    2.6330   55.7476 H       1  ZINC000004040798    0.1400
@<TRIPOS>BOND
     1     1     2    2
     2     2     3   am
     3     2    14    1
     4     3     4    1
     5     3    23    1
     6     4    12   ar
     7     4     5   ar
     8     5     6   ar
     9     5    24    1
    10     6     7   ar
    11     6    25    1
    12     7     8    1
    13     7    11   ar
    14     8     9    2
    15     8    10    2
    16    11    12   ar
    17    11    26    1
    18    12    13    1
    19    14    22    1
    20    14    15    2
    21    15    16    1
    22    15    27    1
    23    16    21   ar
    24    16    17   ar
    25    17    18   ar
    26    17    28    1
    27    18    19   ar
    28    18    29    1
    29    19    20   ar
    30    19    30    1
    31    20    21   ar
    32    20    31    1
    33    21    22    1
@<TRIPOS>SUBSTRUCTURE
     1 ZINC000004040798        1 TEMP              0 ****  ****    0 ROOT


##########                                Name:    ZINC000944933040
##########                DOCK_Rotatable_Bonds:                   4
##########                         Heavy_Atoms:                  26
##########                    Molecular_Weight:             354.449
##########                DOCK_Rotatable_Bonds:                   4
##########                       Formal_Charge:           0.0100002
##########                     HBond_Acceptors:                   5
##########                        HBond_Donors:                   0
##########                         Heavy_Atoms:                  26
##########                          Grid_Score:          -24.117359
##########                     Grid_vdw_energy:          -22.030090
##########                      Grid_es_energy:           -2.087268
##########           Internal_energy_repulsive:           11.467902

@<TRIPOS>MOLECULE
ZINC000944933040
 52 57 1 0 0
SMALL
USER_CHARGES


@<TRIPOS>ATOM
      1 O1        -11.9959   -2.8192   56.1892 O.2     1  ZINC000944933040   -0.5200
      2 C2        -11.3324   -2.6907   57.2003 C.2     1  ZINC000944933040    0.6400
      3 C3        -10.0366   -3.2941   57.2880 C.1     1  ZINC000944933040   -0.2200
      4 C4         -8.9744   -3.7887   57.3598 C.1     1  ZINC000944933040   -0.0400
      5 C5         -7.6425   -4.4089   57.4500 C.3     1  ZINC000944933040   -0.0700
      6 C6         -6.5462   -3.8646   56.5320 C.3     1  ZINC000944933040   -0.1600
      7 C7         -6.5075   -3.5637   58.0316 C.3     1  ZINC000944933040   -0.1600
      8 N8        -11.8143   -1.9758   58.2363 N.am    1  ZINC000944933040   -0.6000
      9 C9        -13.1447   -1.3578   58.1600 C.3     1  ZINC000944933040    0.1100
     10 C10       -13.0069    0.1445   58.4346 C.3     1  ZINC000944933040   -0.1200
     11 C11       -12.2458    0.3460   59.7426 C.3     1  ZINC000944933040   -0.0900
     12 C12       -12.2393    1.8006   60.2326 C.3     1  ZINC000944933040    0.1200
     13 N13       -12.4816    1.2398   61.5769 N.am    1  ZINC000944933040   -0.6400
     14 C14       -12.2525    1.6686   62.8339 C.2     1  ZINC000944933040    0.5500
     15 O15       -12.5647    0.9741   63.7779 O.2     1  ZINC000944933040   -0.5300
     16 C16       -11.6084    3.0111   63.0666 C.3     1  ZINC000944933040   -0.1300
     17 H17       -12.2711    3.8160   62.7485 H       1  ZINC000944933040    0.1100
     18 C18       -10.2452    3.1003   62.3342 C.3     1  ZINC000944933040   -0.1300
     19 C19        -9.2378    3.3081   63.5047 C.3     1  ZINC000944933040    0.0900
     20 H20        -8.2058    3.0330   63.2875 H       1  ZINC000944933040    0.1300
     21 O21        -9.8853    2.5481   64.5773 O.3     1  ZINC000944933040   -0.3600
     22 C22       -11.2123    3.1812   64.5639 C.3     1  ZINC000944933040    0.1200
     23 H23       -11.9253    2.7992   65.2946 H       1  ZINC000944933040    0.1400
     24 C24       -10.8334    4.6843   64.7227 C.3     1  ZINC000944933040   -0.2000
     25 H25       -11.6213    5.4288   64.6091 H       1  ZINC000944933040    0.1200
     26 C26        -9.5794    5.0080   65.5374 C.3     1  ZINC000944933040   -0.1300
     27 C27        -9.4523    4.7774   63.9769 C.3     1  ZINC000944933040   -0.2000
     28 H28        -9.1750    5.6028   63.3211 H       1  ZINC000944933040    0.1300
     29 C29       -13.0762    0.0212   60.9922 C.3     1  ZINC000944933040    0.1100
     30 C30       -10.8649   -0.3050   59.7411 C.3     1  ZINC000944933040   -0.1100
     31 C31       -11.0192   -1.8091   59.4600 C.3     1  ZINC000944933040    0.1100
     32 H32        -7.6351   -5.4775   57.6645 H       1  ZINC000944933040    0.1400
     33 H33        -5.8173   -4.5753   56.1423 H       1  ZINC000944933040    0.1100
     34 H34        -6.8112   -3.0473   55.8614 H       1  ZINC000944933040    0.1000
     35 H35        -6.7471   -2.5483   58.3475 H       1  ZINC000944933040    0.1000
     36 H36        -5.7532   -4.0764   58.6285 H       1  ZINC000944933040    0.1100
     37 H37       -13.5620   -1.5106   57.1648 H       1  ZINC000944933040    0.0900
     38 H38       -13.7997   -1.8071   58.9063 H       1  ZINC000944933040    0.0800
     39 H39       -12.4593    0.6155   57.6181 H       1  ZINC000944933040    0.0800
     40 H40       -13.9972    0.5923   58.5164 H       1  ZINC000944933040    0.0900
     41 H41       -11.2732    2.2947   60.1299 H       1  ZINC000944933040    0.0800
     42 H42       -13.0670    2.3973   59.8493 H       1  ZINC000944933040    0.0900
     43 H43       -10.0319    2.1739   61.8011 H       1  ZINC000944933040    0.0800
     44 H44       -10.2275    3.9516   61.6538 H       1  ZINC000944933040    0.0900
     45 H45        -9.4617    6.0322   65.8916 H       1  ZINC000944933040    0.1000
     46 H46        -9.2020    4.2346   66.2064 H       1  ZINC000944933040    0.1000
     47 H47       -14.1526    0.0892   60.8347 H       1  ZINC000944933040    0.0900
     48 H48       -12.7753   -0.8988   61.4931 H       1  ZINC000944933040    0.0800
     49 H49       -10.2478    0.1513   58.9671 H       1  ZINC000944933040    0.0800
     50 H50       -10.3944   -0.1639   60.7141 H       1  ZINC000944933040    0.0800
     51 H51       -11.5248   -2.2876   60.2988 H       1  ZINC000944933040    0.0700
     52 H52       -10.0356   -2.2574   59.3194 H       1  ZINC000944933040    0.1000
@<TRIPOS>BOND
     1     1     2    2
     2     2     3    1
     3     2     8   am
     4     3     4    3
     5     4     5    1
     6     5     7    1
     7     5     6    1
     8     5    32    1
     9     6     7    1
    10     6    33    1
    11     6    34    1
    12     7    35    1
    13     7    36    1
    14     8    31    1
    15     8     9    1
    16     9    10    1
    17     9    37    1
    18     9    38    1
    19    10    11    1
    20    10    39    1
    21    10    40    1
    22    11    29    1
    23    11    12    1
    24    11    30    1
    25    12    13    1
    26    12    41    1
    27    12    42    1
    28    13    14   am
    29    13    29    1
    30    14    15    2
    31    14    16    1
    32    16    17    1
    33    16    22    1
    34    16    18    1
    35    18    19    1
    36    18    43    1
    37    18    44    1
    38    19    20    1
    39    19    27    1
    40    19    21    1
    41    21    22    1
    42    22    23    1
    43    22    24    1
    44    24    25    1
    45    24    27    1
    46    24    26    1
    47    26    27    1
    48    26    45    1
    49    26    46    1
    50    27    28    1
    51    29    47    1
    52    29    48    1
    53    30    31    1
    54    30    49    1
    55    30    50    1
    56    31    51    1
    57    31    52    1
@<TRIPOS>SUBSTRUCTURE
     1 ZINC000944933040        1 TEMP              0 ****  ****    0 ROOT


##########                                Name:    ZINC000098105561
##########                DOCK_Rotatable_Bonds:                   5
##########                         Heavy_Atoms:                  25
##########                    Molecular_Weight:             368.336
##########                DOCK_Rotatable_Bonds:                   5
##########                       Formal_Charge:         2.98023e-08
##########                     HBond_Acceptors:                   9
##########                        HBond_Donors:                   0
##########                         Heavy_Atoms:                  25
##########                          Grid_Score:          -24.079597
##########                     Grid_vdw_energy:          -23.118048
##########                      Grid_es_energy:           -0.961550
##########           Internal_energy_repulsive:           10.494004

@<TRIPOS>MOLECULE
ZINC000098105561
 36 38 1 0 0
SMALL
USER_CHARGES


@<TRIPOS>ATOM
      1 C1        -13.7256    2.1320   58.8049 C.3     1  ZINC000098105561   -0.0800
      2 C2        -12.2599    2.1319   59.1550 C.2     1  ZINC000098105561    0.0900
      3 C3        -11.3242    2.6297   58.3432 C.2     1  ZINC000098105561   -0.2700
      4 S4         -9.7593    2.4326   59.1282 S.3     1  ZINC000098105561    0.1600
      5 C5        -10.5155    1.6985   60.4743 C.2     1  ZINC000098105561    0.2500
      6 N6         -9.8535    1.2331   61.6020 N.am    1  ZINC000098105561   -0.5200
      7 C7         -9.3192    2.1823   62.5815 C.3     1  ZINC000098105561    0.0500
      8 C8        -10.4024    3.1977   62.9512 C.3     1  ZINC000098105561    0.4400
      9 F9        -11.6028    2.5264   63.2079 F       1  ZINC000098105561   -0.1700
     10 F10       -10.0095    3.9037   64.0934 F       1  ZINC000098105561   -0.1700
     11 F11       -10.5854    4.0913   61.8906 F       1  ZINC000098105561   -0.1700
     12 C12        -9.7023   -0.0921   61.7958 C.2     1  ZINC000098105561    0.5800
     13 O13        -9.1228   -0.4995   62.7831 O.2     1  ZINC000098105561   -0.4100
     14 C14       -10.2425   -1.0518   60.8055 C.2     1  ZINC000098105561    0.0800
     15 C15        -9.4181   -1.5151   59.8337 C.2     1  ZINC000098105561   -0.2000
     16 C16        -9.9685   -2.4562   58.8437 C.2     1  ZINC000098105561    0.4200
     17 O17        -9.2534   -3.0864   58.0847 O.2     1  ZINC000098105561   -0.4300
     18 C18       -11.4392   -2.5908   58.8258 C.ar    1  ZINC000098105561   -0.2200
     19 C19       -12.0983   -3.2414   57.7850 C.ar    1  ZINC000098105561   -0.0300
     20 C20       -13.4727   -3.3377   57.8073 C.ar    1  ZINC000098105561   -0.1400
     21 C21       -14.1943   -2.7899   58.8584 C.ar    1  ZINC000098105561   -0.0500
     22 C22       -13.5534   -2.1460   59.8947 C.ar    1  ZINC000098105561   -0.1400
     23 C23       -12.1664   -2.0398   59.8956 C.ar    1  ZINC000098105561    0.1400
     24 O24       -11.5237   -1.4298   60.9111 O.3     1  ZINC000098105561   -0.2300
     25 N25       -11.7981    1.6448   60.2909 N.2     1  ZINC000098105561   -0.4600
     26 H26       -14.1838    3.0553   59.1594 H       1  ZINC000098105561    0.0800
     27 H27       -13.8409    2.0612   57.7233 H       1  ZINC000098105561    0.0800
     28 H28       -14.2125    1.2796   59.2787 H       1  ZINC000098105561    0.0800
     29 H29       -11.4964    3.0750   57.3745 H       1  ZINC000098105561    0.1900
     30 H30        -9.0057    1.6437   63.4758 H       1  ZINC000098105561    0.1700
     31 H31        -8.4634    2.7039   62.1528 H       1  ZINC000098105561    0.1400
     32 H32        -8.3856   -1.2021   59.7868 H       1  ZINC000098105561    0.1800
     33 H33       -11.5364   -3.6666   56.9666 H       1  ZINC000098105561    0.1400
     34 H34       -13.9901   -3.8410   57.0039 H       1  ZINC000098105561    0.1400
     35 H35       -15.2714   -2.8687   58.8642 H       1  ZINC000098105561    0.1400
     36 H36       -14.1278   -1.7242   60.7062 H       1  ZINC000098105561    0.1400
@<TRIPOS>BOND
     1     1     2    1
     2     1    26    1
     3     1    27    1
     4     1    28    1
     5     2    25    1
     6     2     3    2
     7     3     4    1
     8     3    29    1
     9     4     5    1
    10     5     6    1
    11     5    25    2
    12     6     7    1
    13     6    12   am
    14     7     8    1
    15     7    30    1
    16     7    31    1
    17     8     9    1
    18     8    10    1
    19     8    11    1
    20    12    13    2
    21    12    14    1
    22    14    24    1
    23    14    15    2
    24    15    16    1
    25    15    32    1
    26    16    17    2
    27    16    18    1
    28    18    23   ar
    29    18    19   ar
    30    19    20   ar
    31    19    33    1
    32    20    21   ar
    33    20    34    1
    34    21    22   ar
    35    21    35    1
    36    22    23   ar
    37    22    36    1
    38    23    24    1
@<TRIPOS>SUBSTRUCTURE
     1 ZINC000098105561        1 TEMP              0 ****  ****    0 ROOT


##########                                Name:    ZINC001091652821
##########                DOCK_Rotatable_Bonds:                   4
##########                         Heavy_Atoms:                  24
##########                    Molecular_Weight:             345.465
##########                DOCK_Rotatable_Bonds:                   4
##########                       Formal_Charge:          -0.0199997
##########                     HBond_Acceptors:                   6
##########                        HBond_Donors:                   0
##########                         Heavy_Atoms:                  24
##########                          Grid_Score:          -24.058060
##########                     Grid_vdw_energy:          -24.464836
##########                      Grid_es_energy:            0.406777
##########           Internal_energy_repulsive:            3.979936

@<TRIPOS>MOLECULE
ZINC001091652821
 47 50 1 0 0
SMALL
USER_CHARGES


@<TRIPOS>ATOM
      1 C1        -13.2878   -2.2971   56.4968 C.3     1  ZINC001091652821   -0.1000
      2 C2        -13.4941   -1.7563   57.8882 C.2     1  ZINC001091652821   -0.1200
      3 C3        -13.5890   -2.5509   58.9606 C.2     1  ZINC001091652821   -0.2400
      4 S4        -13.8189   -1.6342   60.3810 S.3     1  ZINC001091652821    0.2100
      5 C5        -13.7825   -0.1289   59.4730 C.2     1  ZINC001091652821   -0.2700
      6 C6        -13.9266    1.2130   60.0450 C.2     1  ZINC001091652821    0.6100
      7 O7        -15.0167    1.5992   60.4240 O.2     1  ZINC001091652821   -0.5200
      8 N8        -12.8517    2.0192   60.1512 N.am    1  ZINC001091652821   -0.6200
      9 C9        -12.8260    3.3830   60.7044 C.3     1  ZINC001091652821    0.0900
     10 C10       -11.4364    3.5695   61.3356 C.3     1  ZINC001091652821   -0.0900
     11 H11       -11.0390    4.5695   61.1618 H       1  ZINC001091652821    0.1100
     12 C12       -11.5157    3.2308   62.8389 C.3     1  ZINC001091652821    0.0400
     13 N13       -10.3046    2.4133   63.1053 N.3     1  ZINC001091652821   -0.5000
     14 C14       -10.4674    1.6136   64.3267 C.3     1  ZINC001091652821    0.1200
     15 C15        -9.1399    1.0167   64.7169 C.2     1  ZINC001091652821    0.0000
     16 C16        -8.5958   -0.1037   64.2137 C.2     1  ZINC001091652821   -0.0800
     17 O17        -7.4112   -0.2811   64.8309 O.3     1  ZINC001091652821   -0.2000
     18 C18        -7.2474    0.7267   65.6981 C.2     1  ZINC001091652821    0.1900
     19 C19        -6.0571    0.9227   66.6013 C.3     1  ZINC001091652821   -0.0600
     20 N20        -8.2837    1.5127   65.6276 N.2     1  ZINC001091652821   -0.4700
     21 C21       -10.1838    1.5405   61.9097 C.3     1  ZINC001091652821    0.0400
     22 C22       -10.5482    2.4688   60.7001 C.3     1  ZINC001091652821   -0.0700
     23 C23        -9.3026    3.0215   60.0046 C.3     1  ZINC001091652821   -0.1300
     24 C24       -11.4728    1.7053   59.7424 C.3     1  ZINC001091652821    0.1200
     25 C25       -13.5926   -0.4102   58.1493 C.2     1  ZINC001091652821   -0.0500
     26 H26       -12.2200   -2.3785   56.2932 H       1  ZINC001091652821    0.0700
     27 H27       -13.7488   -3.2816   56.4176 H       1  ZINC001091652821    0.0700
     28 H28       -13.7452   -1.6224   55.7732 H       1  ZINC001091652821    0.0700
     29 H29       -13.5286   -3.6289   58.9310 H       1  ZINC001091652821    0.1700
     30 H30       -12.9762    4.1125   59.9084 H       1  ZINC001091652821    0.0800
     31 H31       -13.5997    3.4931   61.4642 H       1  ZINC001091652821    0.0800
     32 H32       -11.4969    4.1430   63.4353 H       1  ZINC001091652821    0.0800
     33 H33       -12.4166    2.6554   63.0517 H       1  ZINC001091652821    0.0500
     34 H34       -10.8301    2.2512   65.1328 H       1  ZINC001091652821    0.0500
     35 H35       -11.1857    0.8142   64.1445 H       1  ZINC001091652821    0.1000
     36 H36        -9.0269   -0.7422   63.4568 H       1  ZINC001091652821    0.2100
     37 H37        -5.3432    0.1144   66.4423 H       1  ZINC001091652821    0.0900
     38 H38        -5.5818    1.8770   66.3742 H       1  ZINC001091652821    0.1000
     39 H39        -6.3851    0.9184   67.6409 H       1  ZINC001091652821    0.1000
     40 H40        -9.1610    1.1783   61.8055 H       1  ZINC001091652821    0.0900
     41 H41       -10.8787    0.7036   61.9785 H       1  ZINC001091652821    0.0500
     42 H42        -8.7085    2.1957   59.6132 H       1  ZINC001091652821    0.0600
     43 H43        -9.6036    3.6733   59.1844 H       1  ZINC001091652821    0.0600
     44 H44        -8.7084    3.5892   60.7206 H       1  ZINC001091652821    0.0700
     45 H45       -11.3069    0.6322   59.8382 H       1  ZINC001091652821    0.0900
     46 H46       -11.2913    2.0220   58.7153 H       1  ZINC001091652821    0.0800
     47 H47       -13.5337    0.3490   57.3835 H       1  ZINC001091652821    0.1500
@<TRIPOS>BOND
     1     1     2    1
     2     1    26    1
     3     1    27    1
     4     1    28    1
     5     2    25    1
     6     2     3    2
     7     3     4    1
     8     3    29    1
     9     4     5    1
    10     5     6    1
    11     5    25    2
    12     6     7    2
    13     6     8   am
    14     8    24    1
    15     8     9    1
    16     9    10    1
    17     9    30    1
    18     9    31    1
    19    10    11    1
    20    10    22    1
    21    10    12    1
    22    12    13    1
    23    12    32    1
    24    12    33    1
    25    13    14    1
    26    13    21    1
    27    14    15    1
    28    14    34    1
    29    14    35    1
    30    15    20    1
    31    15    16    2
    32    16    17    1
    33    16    36    1
    34    17    18    1
    35    18    19    1
    36    18    20    2
    37    19    37    1
    38    19    38    1
    39    19    39    1
    40    21    22    1
    41    21    40    1
    42    21    41    1
    43    22    23    1
    44    22    24    1
    45    23    42    1
    46    23    43    1
    47    23    44    1
    48    24    45    1
    49    24    46    1
    50    25    47    1
@<TRIPOS>SUBSTRUCTURE
     1 ZINC001091652821        1 TEMP              0 ****  ****    0 ROOT


##########                                Name:    ZINC000422507946
##########                DOCK_Rotatable_Bonds:                   7
##########                         Heavy_Atoms:                  25
##########                    Molecular_Weight:             364.484
##########                DOCK_Rotatable_Bonds:                   7
##########                       Formal_Charge:          0.00999952
##########                     HBond_Acceptors:                   6
##########                        HBond_Donors:                   1
##########                         Heavy_Atoms:                  25
##########                          Grid_Score:          -24.057903
##########                     Grid_vdw_energy:          -25.304098
##########                      Grid_es_energy:            1.246195
##########           Internal_energy_repulsive:           29.058100

@<TRIPOS>MOLECULE
ZINC000422507946
 50 52 1 0 0
SMALL
USER_CHARGES


@<TRIPOS>ATOM
      1 C1        -12.2915    4.9971   55.2204 C.3     1  ZINC000422507946   -0.1400
      2 C2        -11.8784    4.8253   56.6835 C.3     1  ZINC000422507946   -0.0400
      3 H3        -11.1824    5.6115   56.9758 H       1  ZINC000422507946    0.1100
      4 C4        -11.2441    3.4363   56.9037 C.3     1  ZINC000422507946   -0.1400
      5 C5        -11.5939    2.9468   58.3197 C.3     1  ZINC000422507946    0.1400
      6 H6        -11.0328    3.5169   59.0600 H       1  ZINC000422507946    0.1100
      7 N7        -11.2841    1.5205   58.4469 N.am    1  ZINC000422507946   -0.6900
      8 C8        -10.9449    1.0090   59.6468 C.2     1  ZINC000422507946    0.5100
      9 O9        -10.8976    1.7295   60.6221 O.2     1  ZINC000422507946   -0.5000
     10 C10       -10.6271   -0.4455   59.7762 C.2     1  ZINC000422507946    0.5100
     11 O11        -9.4868   -0.8007   59.9906 O.2     1  ZINC000422507946   -0.5200
     12 N12       -11.6072   -1.3628   59.6548 N.am    1  ZINC000422507946   -0.5700
     13 C13       -11.2957   -2.7887   59.7816 C.3     1  ZINC000422507946    0.1400
     14 C14       -10.2639   -3.1710   58.7518 C.ar    1  ZINC000422507946   -0.0800
     15 C15       -10.6368   -3.3465   57.4325 C.ar    1  ZINC000422507946   -0.1100
     16 C16        -9.6914   -3.6973   56.4865 C.ar    1  ZINC000422507946   -0.0900
     17 C17        -8.3724   -3.8728   56.8593 C.ar    1  ZINC000422507946   -0.1500
     18 C18        -7.9977   -3.6968   58.1807 C.ar    1  ZINC000422507946    0.1000
     19 F19        -6.7084   -3.8682   58.5463 F       1  ZINC000422507946   -0.1400
     20 C20        -8.9443   -3.3405   59.1260 C.ar    1  ZINC000422507946   -0.1500
     21 C21       -12.9839   -0.9339   59.3960 C.3     1  ZINC000422507946    0.1400
     22 C22       -13.3800   -1.2762   57.9449 C.3     1  ZINC000422507946   -0.1200
     23 C23       -14.1124   -2.6360   58.0616 C.3     1  ZINC000422507946   -0.1300
     24 C24       -14.9083   -2.4832   59.3816 C.3     1  ZINC000422507946   -0.1200
     25 C25       -13.9556   -1.7014   60.3095 C.3     1  ZINC000422507946   -0.1600
     26 C26       -13.1155    3.1788   58.5140 C.3     1  ZINC000422507946   -0.0900
     27 S27       -13.3528    4.8419   57.7691 S.3     1  ZINC000422507946   -0.2700
     28 H28       -12.7633    5.9708   55.0880 H       1  ZINC000422507946    0.0700
     29 H29       -11.4093    4.9313   54.5836 H       1  ZINC000422507946    0.0700
     30 H30       -12.9962    4.2117   54.9472 H       1  ZINC000422507946    0.0700
     31 H31       -11.6352    2.7346   56.1670 H       1  ZINC000422507946    0.0900
     32 H32       -10.1616    3.5077   56.7984 H       1  ZINC000422507946    0.0900
     33 H33       -11.3231    0.9444   57.6675 H       1  ZINC000422507946    0.4100
     34 H34       -10.9043   -2.9877   60.7793 H       1  ZINC000422507946    0.1100
     35 H35       -12.2014   -3.3740   59.6232 H       1  ZINC000422507946    0.1000
     36 H36       -11.6676   -3.2098   57.1403 H       1  ZINC000422507946    0.1400
     37 H37        -9.9839   -3.8344   55.4560 H       1  ZINC000422507946    0.1300
     38 H38        -7.6343   -4.1475   56.1203 H       1  ZINC000422507946    0.1400
     39 H39        -8.6530   -3.2026   60.1568 H       1  ZINC000422507946    0.1400
     40 H40       -13.0790    0.1384   59.5668 H       1  ZINC000422507946    0.1100
     41 H41       -14.0493   -0.5157   57.5426 H       1  ZINC000422507946    0.0800
     42 H42       -12.4923   -1.3735   57.3199 H       1  ZINC000422507946    0.0600
     43 H43       -14.7873   -2.7849   57.2187 H       1  ZINC000422507946    0.0700
     44 H44       -13.3969   -3.4550   58.1345 H       1  ZINC000422507946    0.0600
     45 H45       -15.8243   -1.9177   59.2115 H       1  ZINC000422507946    0.0700
     46 H46       -15.1359   -3.4615   59.8052 H       1  ZINC000422507946    0.0700
     47 H47       -13.4028   -2.3929   60.9454 H       1  ZINC000422507946    0.0900
     48 H48       -14.5228   -1.0016   60.9230 H       1  ZINC000422507946    0.0800
     49 H49       -13.6943    2.4264   57.9784 H       1  ZINC000422507946    0.1000
     50 H50       -13.3745    3.1881   59.5728 H       1  ZINC000422507946    0.1100
@<TRIPOS>BOND
     1     1     2    1
     2     1    28    1
     3     1    29    1
     4     1    30    1
     5     2     3    1
     6     2    27    1
     7     2     4    1
     8     4     5    1
     9     4    31    1
    10     4    32    1
    11     5     6    1
    12     5     7    1
    13     5    26    1
    14     7     8   am
    15     7    33    1
    16     8     9    2
    17     8    10    1
    18    10    11    2
    19    10    12   am
    20    12    13    1
    21    12    21    1
    22    13    14    1
    23    13    34    1
    24    13    35    1
    25    14    20   ar
    26    14    15   ar
    27    15    16   ar
    28    15    36    1
    29    16    17   ar
    30    16    37    1
    31    17    18   ar
    32    17    38    1
    33    18    19    1
    34    18    20   ar
    35    20    39    1
    36    21    25    1
    37    21    22    1
    38    21    40    1
    39    22    23    1
    40    22    41    1
    41    22    42    1
    42    23    24    1
    43    23    43    1
    44    23    44    1
    45    24    25    1
    46    24    45    1
    47    24    46    1
    48    25    47    1
    49    25    48    1
    50    26    27    1
    51    26    49    1
    52    26    50    1
@<TRIPOS>SUBSTRUCTURE
     1 ZINC000422507946        1 TEMP              0 ****  ****    0 ROOT


##########                                Name:    ZINC001199210165
##########                DOCK_Rotatable_Bonds:                   5
##########                         Heavy_Atoms:                  23
##########                    Molecular_Weight:             375.225
##########                DOCK_Rotatable_Bonds:                   5
##########                       Formal_Charge:         -0.00999999
##########                     HBond_Acceptors:                   6
##########                        HBond_Donors:                   2
##########                         Heavy_Atoms:                  23
##########                          Grid_Score:          -23.984129
##########                     Grid_vdw_energy:          -22.490355
##########                      Grid_es_energy:           -1.493775
##########           Internal_energy_repulsive:          135.852844

@<TRIPOS>MOLECULE
ZINC001199210165
 38 40 1 0 0
SMALL
USER_CHARGES


@<TRIPOS>ATOM
      1 C1         -8.7976    5.4312   61.0869 C.3     1  ZINC001199210165   -0.1700
      2 C2         -7.3711    5.3780   61.6374 C.3     1  ZINC001199210165    0.0800
      3 C3         -6.5966    6.6107   61.1671 C.3     1  ZINC001199210165   -0.1500
      4 O4         -7.4121    5.3575   63.0657 O.3     1  ZINC001199210165   -0.3000
      5 C5         -8.0667    4.3216   63.6484 C.ar    1  ZINC001199210165    0.3300
      6 C6         -8.6507    3.3446   62.8534 C.ar    1  ZINC001199210165   -0.1300
      7 C7         -9.3208    2.2848   63.4678 C.ar    1  ZINC001199210165   -0.0600
      8 C8         -9.9590    1.2187   62.6614 C.2     1  ZINC001199210165    0.5700
      9 O9        -10.6451    0.3750   63.2037 O.2     1  ZINC001199210165   -0.4900
     10 N10        -9.7785    1.1844   61.3262 N.am    1  ZINC001199210165   -0.6600
     11 C11       -10.3808    0.1782   60.5650 C.ar    1  ZINC001199210165    0.2000
     12 C12       -11.7691    0.1550   60.4223 C.ar    1  ZINC001199210165   -0.1500
     13 C13       -12.3738   -0.8182   59.6835 C.ar    1  ZINC001199210165   -0.0200
     14 C14       -11.5993   -1.8039   59.0615 C.ar    1  ZINC001199210165   -0.1700
     15 C15       -11.9128   -2.9575   58.2231 C.2     1  ZINC001199210165    0.0900
     16 Br16      -13.6399   -3.5046   57.6810 Br      1  ZINC001199210165    0.0600
     17 N17       -10.7902   -3.5424   57.9147 N.2     1  ZINC001199210165   -0.2100
     18 N18        -9.7167   -2.8575   58.4932 N.pl3   1  ZINC001199210165   -0.4900
     19 C19       -10.1976   -1.7866   59.2012 C.ar    1  ZINC001199210165    0.1500
     20 C20        -9.5962   -0.7831   59.9545 C.ar    1  ZINC001199210165   -0.1700
     21 C21        -9.3728    2.2566   64.8660 C.ar    1  ZINC001199210165   -0.1900
     22 C22        -8.7653    3.2684   65.5815 C.ar    1  ZINC001199210165    0.1400
     23 N23        -8.1364    4.2513   64.9668 N.ar    1  ZINC001199210165   -0.5200
     24 H24        -9.2935    6.3318   61.4491 H       1  ZINC001199210165    0.0600
     25 H25        -8.7664    5.4468   59.9975 H       1  ZINC001199210165    0.0700
     26 H26        -9.3494    4.5530   61.4220 H       1  ZINC001199210165    0.0600
     27 H27        -6.8753    4.4774   61.2753 H       1  ZINC001199210165    0.0900
     28 H28        -7.0924    7.5114   61.5293 H       1  ZINC001199210165    0.0700
     29 H29        -5.5802    6.5728   61.5593 H       1  ZINC001199210165    0.0600
     30 H30        -6.5653    6.6264   60.0777 H       1  ZINC001199210165    0.0800
     31 H31        -8.5880    3.4036   61.7768 H       1  ZINC001199210165    0.1600
     32 H32        -9.2308    1.8579   60.8933 H       1  ZINC001199210165    0.4100
     33 H33       -12.3694    0.9142   60.9014 H       1  ZINC001199210165    0.1500
     34 H34       -13.4487   -0.8287   59.5787 H       1  ZINC001199210165    0.1400
     35 H35        -8.7818   -3.1011   58.4070 H       1  ZINC001199210165    0.4500
     36 H36        -8.5222   -0.7569   60.0644 H       1  ZINC001199210165    0.1400
     37 H37        -9.8820    1.4538   65.3784 H       1  ZINC001199210165    0.1400
     38 H38        -8.8020    3.2530   66.6607 H       1  ZINC001199210165    0.1700
@<TRIPOS>BOND
     1     1     2    1
     2     1    24    1
     3     1    25    1
     4     1    26    1
     5     2     3    1
     6     2     4    1
     7     2    27    1
     8     3    28    1
     9     3    29    1
    10     3    30    1
    11     4     5    1
    12     5    23   ar
    13     5     6   ar
    14     6     7   ar
    15     6    31    1
    16     7     8    1
    17     7    21   ar
    18     8     9    2
    19     8    10   am
    20    10    11    1
    21    10    32    1
    22    11    20   ar
    23    11    12   ar
    24    12    13   ar
    25    12    33    1
    26    13    14   ar
    27    13    34    1
    28    14    19   ar
    29    14    15    1
    30    15    16    1
    31    15    17    2
    32    17    18    1
    33    18    19    1
    34    18    35    1
    35    19    20   ar
    36    20    36    1
    37    21    22   ar
    38    21    37    1
    39    22    23   ar
    40    22    38    1
@<TRIPOS>SUBSTRUCTURE
     1 ZINC001199210165        1 TEMP              0 ****  ****    0 ROOT


##########                                Name:    ZINC000482139334
##########                DOCK_Rotatable_Bonds:                   4
##########                         Heavy_Atoms:                  26
##########                    Molecular_Weight:             348.376
##########                DOCK_Rotatable_Bonds:                   4
##########                       Formal_Charge:           0.0300002
##########                     HBond_Acceptors:                   5
##########                        HBond_Donors:                   1
##########                         Heavy_Atoms:                  26
##########                          Grid_Score:          -23.978939
##########                     Grid_vdw_energy:          -21.981440
##########                      Grid_es_energy:           -1.997499
##########           Internal_energy_repulsive:           17.938047

@<TRIPOS>MOLECULE
ZINC000482139334
 43 47 1 0 0
SMALL
USER_CHARGES


@<TRIPOS>ATOM
      1 O1         -8.8247    4.1555   57.9743 O.2     1  ZINC000482139334   -0.4800
      2 C2         -8.0647    4.3890   58.8901 C.2     1  ZINC000482139334    0.5500
      3 N3         -6.7374    4.4518   58.6648 N.am    1  ZINC000482139334   -0.6100
      4 C4         -6.2405    4.2438   57.3876 C.2     1  ZINC000482139334    0.4300
      5 N5         -6.9610    4.0234   56.3180 N.2     1  ZINC000482139334   -0.4800
      6 C6         -6.1238    3.8690   55.2589 C.2     1  ZINC000482139334    0.0400
      7 C7         -6.5228    3.6026   53.8550 C.ar    1  ZINC000482139334   -0.0500
      8 C8         -5.5507    3.4395   52.8707 C.ar    1  ZINC000482139334   -0.0800
      9 C9         -5.9273    3.1912   51.5660 C.ar    1  ZINC000482139334   -0.1300
     10 C10        -7.2670    3.1047   51.2337 C.ar    1  ZINC000482139334   -0.0800
     11 C11        -8.2383    3.2661   52.2052 C.ar    1  ZINC000482139334   -0.1600
     12 C12        -7.8736    3.5088   53.5162 C.ar    1  ZINC000482139334    0.1300
     13 F13        -8.8224    3.6663   54.4650 F       1  ZINC000482139334   -0.1200
     14 C14        -4.8583    4.0036   55.7212 C.2     1  ZINC000482139334   -0.0600
     15 O15        -4.9427    4.2418   57.0467 O.3     1  ZINC000482139334   -0.1800
     16 C16        -8.6048    4.6152   60.2787 C.3     1  ZINC000482139334   -0.1800
     17 H17        -8.0097    5.2716   60.9136 H       1  ZINC000482139334    0.1400
     18 C18       -10.1260    4.6558   60.4480 C.3     1  ZINC000482139334   -0.1200
     19 C19        -9.3300    3.4551   60.9495 C.3     1  ZINC000482139334   -0.0500
     20 C20        -9.4440    2.0833   60.2639 C.3     1  ZINC000482139334   -0.0700
     21 C21       -10.0050    1.1967   61.3978 C.3     1  ZINC000482139334   -0.0900
     22 C22        -9.5617    1.8656   62.6820 C.ar    1  ZINC000482139334   -0.0800
     23 C23        -9.5021    1.3741   63.9747 C.ar    1  ZINC000482139334   -0.1100
     24 C24        -9.0587    2.1793   65.0059 C.ar    1  ZINC000482139334   -0.1100
     25 C25        -8.6729    3.4809   64.7469 C.ar    1  ZINC000482139334   -0.1200
     26 C26        -8.7311    3.9738   63.4580 C.ar    1  ZINC000482139334   -0.1000
     27 C27        -9.1747    3.1690   62.4222 C.ar    1  ZINC000482139334   -0.0700
     28 H28        -6.1297    4.6426   59.3964 H       1  ZINC000482139334    0.4400
     29 H29        -4.5039    3.5072   53.1279 H       1  ZINC000482139334    0.1300
     30 H30        -5.1737    3.0646   50.8027 H       1  ZINC000482139334    0.1400
     31 H31        -7.5561    2.9107   50.2113 H       1  ZINC000482139334    0.1400
     32 H32        -9.2830    3.1982   51.9399 H       1  ZINC000482139334    0.1400
     33 H33        -3.9518    3.9365   55.1381 H       1  ZINC000482139334    0.2200
     34 H34       -10.5315    5.3384   61.1948 H       1  ZINC000482139334    0.1200
     35 H35       -10.7360    4.5188   59.5550 H       1  ZINC000482139334    0.1100
     36 H36       -10.1382    2.1253   59.4246 H       1  ZINC000482139334    0.0800
     37 H37        -8.4651    1.7280   59.9418 H       1  ZINC000482139334    0.0900
     38 H38       -11.0932    1.1610   61.3464 H       1  ZINC000482139334    0.0800
     39 H39        -9.5894    0.1913   61.3323 H       1  ZINC000482139334    0.0800
     40 H40        -9.8039    0.3572   64.1779 H       1  ZINC000482139334    0.1200
     41 H41        -9.0139    1.7922   66.0131 H       1  ZINC000482139334    0.1300
     42 H42        -8.3265    4.1122   65.5519 H       1  ZINC000482139334    0.1300
     43 H43        -8.4297    4.9913   63.2571 H       1  ZINC000482139334    0.1200
@<TRIPOS>BOND
     1     1     2    2
     2     2     3   am
     3     2    16    1
     4     3     4    1
     5     3    28    1
     6     4    15    1
     7     4     5    2
     8     5     6    1
     9     6     7    1
    10     6    14    2
    11     7    12   ar
    12     7     8   ar
    13     8     9   ar
    14     8    29    1
    15     9    10   ar
    16     9    30    1
    17    10    11   ar
    18    10    31    1
    19    11    12   ar
    20    11    32    1
    21    12    13    1
    22    14    15    1
    23    14    33    1
    24    16    17    1
    25    16    19    1
    26    16    18    1
    27    18    19    1
    28    18    34    1
    29    18    35    1
    30    19    27    1
    31    19    20    1
    32    20    21    1
    33    20    36    1
    34    20    37    1
    35    21    22    1
    36    21    38    1
    37    21    39    1
    38    22    27   ar
    39    22    23   ar
    40    23    24   ar
    41    23    40    1
    42    24    25   ar
    43    24    41    1
    44    25    26   ar
    45    25    42    1
    46    26    27   ar
    47    26    43    1
@<TRIPOS>SUBSTRUCTURE
     1 ZINC000482139334        1 TEMP              0 ****  ****    0 ROOT


##########                                Name:    ZINC000486710336
##########                DOCK_Rotatable_Bonds:                   6
##########                         Heavy_Atoms:                  31
##########                    Molecular_Weight:             420.555
##########                DOCK_Rotatable_Bonds:                   6
##########                       Formal_Charge:         1.49012e-07
##########                     HBond_Acceptors:                   6
##########                        HBond_Donors:                   1
##########                         Heavy_Atoms:                  31
##########                          Grid_Score:          -23.951626
##########                     Grid_vdw_energy:          -25.414667
##########                      Grid_es_energy:            1.463040
##########           Internal_energy_repulsive:           52.743484

@<TRIPOS>MOLECULE
ZINC000486710336
 63 67 1 0 0
SMALL
USER_CHARGES


@<TRIPOS>ATOM
      1 C1        -11.0210   -1.6516   52.3024 C.3     1  ZINC000486710336    0.1000
      2 N2        -12.3694   -1.0800   52.2688 N.pl3   1  ZINC000486710336   -0.3900
      3 N3        -13.0184   -0.5621   51.1406 N.2     1  ZINC000486710336   -0.2800
      4 C4        -14.2051   -0.1451   51.5012 C.2     1  ZINC000486710336    0.1000
      5 C5        -15.2317    0.4823   50.5937 C.3     1  ZINC000486710336   -0.0100
      6 C6        -14.9722    2.0025   50.4510 C.3     1  ZINC000486710336   -0.1200
      7 C7        -15.6565    2.3411   49.1033 C.3     1  ZINC000486710336   -0.1200
      8 C8        -15.3580    1.1193   48.2100 C.3     1  ZINC000486710336   -0.1200
      9 C9        -15.0879   -0.0626   49.1577 C.3     1  ZINC000486710336   -0.1100
     10 C10       -14.3595   -0.3798   52.8696 C.2     1  ZINC000486710336   -0.2600
     11 C11       -13.2158   -0.9630   53.3250 C.2     1  ZINC000486710336    0.3000
     12 N12       -12.9584   -1.3592   54.6343 N.am    1  ZINC000486710336   -0.6200
     13 C13       -13.9439   -1.8928   55.3829 C.2     1  ZINC000486710336    0.5100
     14 O14       -15.0564   -2.0266   54.9159 O.2     1  ZINC000486710336   -0.4800
     15 C15       -13.6674   -2.3195   56.7868 C.2     1  ZINC000486710336    0.5300
     16 O16       -12.9370   -3.2648   57.0010 O.2     1  ZINC000486710336   -0.5100
     17 N17       -14.2290   -1.6550   57.8161 N.am    1  ZINC000486710336   -0.5800
     18 C18       -15.1356   -0.4977   57.7093 C.3     1  ZINC000486710336    0.1000
     19 C19       -15.4870   -0.0596   59.1485 C.3     1  ZINC000486710336   -0.0600
     20 H20       -16.4297   -0.5037   59.4684 H       1  ZINC000486710336    0.1000
     21 C21       -15.5443    1.4428   59.2509 C.ar    1  ZINC000486710336   -0.0700
     22 C22       -15.7211    2.2070   58.1127 C.ar    1  ZINC000486710336   -0.1100
     23 C23       -15.7737    3.5851   58.2067 C.ar    1  ZINC000486710336   -0.1200
     24 C24       -15.6499    4.1990   59.4390 C.ar    1  ZINC000486710336   -0.1200
     25 C25       -15.4739    3.4349   60.5773 C.ar    1  ZINC000486710336   -0.1200
     26 C26       -15.4257    2.0565   60.4839 C.ar    1  ZINC000486710336   -0.1100
     27 C27       -14.2968   -0.6298   59.9795 C.3     1  ZINC000486710336   -0.0800
     28 H28       -14.5481   -0.7776   61.0297 H       1  ZINC000486710336    0.1100
     29 C29       -13.1279    0.3393   59.7900 C.3     1  ZINC000486710336   -0.1100
     30 C30       -11.8122   -0.3151   60.2046 C.3     1  ZINC000486710336   -0.1200
     31 C31       -11.5616   -1.5279   59.3020 C.3     1  ZINC000486710336   -0.1100
     32 C32       -12.6800   -2.5435   59.5358 C.3     1  ZINC000486710336   -0.1400
     33 C33       -14.0509   -1.9595   59.2382 C.3     1  ZINC000486710336    0.1400
     34 H34       -14.8088   -2.6882   59.5261 H       1  ZINC000486710336    0.0800
     35 H35       -11.0750   -2.7217   52.1024 H       1  ZINC000486710336    0.0800
     36 H36       -10.4036   -1.1708   51.5437 H       1  ZINC000486710336    0.1000
     37 H37       -10.5813   -1.4875   53.2861 H       1  ZINC000486710336    0.0800
     38 H38       -16.2372    0.2987   50.9724 H       1  ZINC000486710336    0.0900
     39 H39       -15.4375    2.5523   51.2692 H       1  ZINC000486710336    0.0700
     40 H40       -13.9031    2.2093   50.4039 H       1  ZINC000486710336    0.0800
     41 H41       -16.7313    2.4598   49.2404 H       1  ZINC000486710336    0.0700
     42 H42       -15.2240    3.2438   48.6720 H       1  ZINC000486710336    0.0700
     43 H43       -16.2177    0.9010   47.5765 H       1  ZINC000486710336    0.0600
     44 H44       -14.4795    1.3126   47.5944 H       1  ZINC000486710336    0.0600
     45 H45       -14.0783   -0.4428   49.0019 H       1  ZINC000486710336    0.0700
     46 H46       -15.8164   -0.8545   48.9839 H       1  ZINC000486710336    0.0700
     47 H47       -15.2322   -0.1445   53.4606 H       1  ZINC000486710336    0.1700
     48 H48       -12.0698   -1.2513   55.0079 H       1  ZINC000486710336    0.4200
     49 H49       -14.6368    0.3174   57.1848 H       1  ZINC000486710336    0.0900
     50 H50       -16.0425   -0.7846   57.1770 H       1  ZINC000486710336    0.0800
     51 H51       -15.8179    1.7272   57.1499 H       1  ZINC000486710336    0.1200
     52 H52       -15.9113    4.1821   57.3172 H       1  ZINC000486710336    0.1200
     53 H53       -15.6903    5.2759   59.5123 H       1  ZINC000486710336    0.1200
     54 H54       -15.3767    3.9146   61.5401 H       1  ZINC000486710336    0.1200
     55 H55       -15.2881    1.4595   61.3732 H       1  ZINC000486710336    0.1200
     56 H56       -13.0692    0.6304   58.7412 H       1  ZINC000486710336    0.0700
     57 H57       -13.2951    1.2272   60.3996 H       1  ZINC000486710336    0.0700
     58 H58       -10.9968    0.3994   60.0917 H       1  ZINC000486710336    0.0600
     59 H59       -11.8763   -0.6393   61.2433 H       1  ZINC000486710336    0.0600
     60 H60       -11.5626   -1.2148   58.2580 H       1  ZINC000486710336    0.0500
     61 H61       -10.6001   -1.9775   59.5499 H       1  ZINC000486710336    0.0600
     62 H62       -12.5162   -3.4092   58.8940 H       1  ZINC000486710336    0.1000
     63 H63       -12.6596   -2.8637   60.5775 H       1  ZINC000486710336    0.0700
@<TRIPOS>BOND
     1     1     2    1
     2     1    35    1
     3     1    36    1
     4     1    37    1
     5     2    11    1
     6     2     3    1
     7     3     4    2
     8     4     5    1
     9     4    10    1
    10     5     9    1
    11     5     6    1
    12     5    38    1
    13     6     7    1
    14     6    39    1
    15     6    40    1
    16     7     8    1
    17     7    41    1
    18     7    42    1
    19     8     9    1
    20     8    43    1
    21     8    44    1
    22     9    45    1
    23     9    46    1
    24    10    11    2
    25    10    47    1
    26    11    12    1
    27    12    13   am
    28    12    48    1
    29    13    14    2
    30    13    15    1
    31    15    16    2
    32    15    17   am
    33    17    33    1
    34    17    18    1
    35    18    19    1
    36    18    49    1
    37    18    50    1
    38    19    20    1
    39    19    21    1
    40    19    27    1
    41    21    26   ar
    42    21    22   ar
    43    22    23   ar
    44    22    51    1
    45    23    24   ar
    46    23    52    1
    47    24    25   ar
    48    24    53    1
    49    25    26   ar
    50    25    54    1
    51    26    55    1
    52    27    28    1
    53    27    33    1
    54    27    29    1
    55    29    30    1
    56    29    56    1
    57    29    57    1
    58    30    31    1
    59    30    58    1
    60    30    59    1
    61    31    32    1
    62    31    60    1
    63    31    61    1
    64    32    33    1
    65    32    62    1
    66    32    63    1
    67    33    34    1
@<TRIPOS>SUBSTRUCTURE
     1 ZINC000486710336        1 TEMP              0 ****  ****    0 ROOT


##########                                Name:    ZINC000558213406
##########                DOCK_Rotatable_Bonds:                   8
##########                         Heavy_Atoms:                  30
##########                    Molecular_Weight:               408.5
##########                DOCK_Rotatable_Bonds:                   8
##########                       Formal_Charge:          -0.0299987
##########                     HBond_Acceptors:                   7
##########                        HBond_Donors:                   2
##########                         Heavy_Atoms:                  30
##########                          Grid_Score:          -23.910332
##########                     Grid_vdw_energy:          -21.066017
##########                      Grid_es_energy:           -2.844315
##########           Internal_energy_repulsive:            9.353798

@<TRIPOS>MOLECULE
ZINC000558213406
 58 61 1 0 0
SMALL
USER_CHARGES


@<TRIPOS>ATOM
      1 O1         -4.8587    5.9142   53.8888 O.2     1  ZINC000558213406   -0.5700
      2 C2         -4.9294    4.8207   54.4157 C.2     1  ZINC000558213406    0.7100
      3 N3         -5.9049    3.9622   54.0581 N.am    1  ZINC000558213406   -0.6800
      4 C4         -6.8412    4.3322   53.0833 C.ar    1  ZINC000558213406    0.1700
      5 C5         -6.9017    3.6406   51.8807 C.ar    1  ZINC000558213406   -0.1300
      6 C6         -7.8248    4.0053   50.9207 C.ar    1  ZINC000558213406   -0.1100
      7 C7         -8.6914    5.0627   51.1573 C.ar    1  ZINC000558213406    0.0600
      8 O8         -9.5998    5.4215   50.2115 O.3     1  ZINC000558213406   -0.2500
      9 C9        -10.6218    4.5646   49.9509 C.ar    1  ZINC000558213406    0.0700
     10 C10       -11.0191    4.3179   48.6405 C.ar    1  ZINC000558213406   -0.1500
     11 C11       -12.0662    3.4364   48.4249 C.ar    1  ZINC000558213406   -0.1300
     12 C12       -12.6769    2.8356   49.5096 C.ar    1  ZINC000558213406    0.0600
     13 N13       -12.2763    3.0915   50.7398 N.ar    1  ZINC000558213406   -0.4500
     14 C14       -11.2805    3.9186   50.9876 C.ar    1  ZINC000558213406    0.0800
     15 C15        -8.6316    5.7536   52.3590 C.ar    1  ZINC000558213406   -0.1000
     16 C16        -7.7124    5.3865   53.3218 C.ar    1  ZINC000558213406   -0.1100
     17 N17        -4.0290    4.4648   55.3533 N.am    1  ZINC000558213406   -0.7300
     18 C18        -2.9685    5.3980   55.7420 C.3     1  ZINC000558213406    0.1500
     19 H19        -3.2853    6.4285   55.5805 H       1  ZINC000558213406    0.1100
     20 C20        -2.5568    5.1757   57.2213 C.3     1  ZINC000558213406   -0.1400
     21 C21        -1.0955    5.6900   57.2180 C.3     1  ZINC000558213406    0.1000
     22 N22        -0.5509    5.2710   55.9136 N.am    1  ZINC000558213406   -0.6200
     23 C23         0.7530    5.0794   55.6318 C.2     1  ZINC000558213406    0.5400
     24 O24         1.5910    5.2534   56.4910 O.2     1  ZINC000558213406   -0.5300
     25 C25         1.1697    4.6489   54.2489 C.3     1  ZINC000558213406   -0.1000
     26 C26         2.5657    5.1954   53.9437 C.3     1  ZINC000558213406   -0.1100
     27 C27         2.9887    4.7584   52.5398 C.3     1  ZINC000558213406   -0.1200
     28 C28         3.0120    3.2303   52.4666 C.3     1  ZINC000558213406   -0.1200
     29 C29         1.6158    2.6839   52.7719 C.3     1  ZINC000558213406   -0.1200
     30 C30         1.1928    3.1209   54.1758 C.3     1  ZINC000558213406   -0.1100
     31 C31        -1.6674    5.0990   54.9679 C.3     1  ZINC000558213406    0.1000
     32 H32        -5.9589    3.0883   54.4755 H       1  ZINC000558213406    0.4100
     33 H33        -6.2268    2.8180   51.6962 H       1  ZINC000558213406    0.1300
     34 H34        -7.8720    3.4674   49.9853 H       1  ZINC000558213406    0.1400
     35 H35       -10.5237    4.8019   47.8119 H       1  ZINC000558213406    0.1400
     36 H36       -12.4014    3.2214   47.4210 H       1  ZINC000558213406    0.1400
     37 H37       -13.4935    2.1476   49.3476 H       1  ZINC000558213406    0.1600
     38 H38       -10.9804    4.1031   52.0086 H       1  ZINC000558213406    0.1700
     39 H39        -9.3065    6.5766   52.5426 H       1  ZINC000558213406    0.1400
     40 H40        -7.6662    5.9242   54.2572 H       1  ZINC000558213406    0.1500
     41 H41        -4.0829    3.5909   55.7706 H       1  ZINC000558213406    0.4000
     42 H42        -3.1780    5.7682   57.8930 H       1  ZINC000558213406    0.0900
     43 H43        -2.5984    4.1186   57.4837 H       1  ZINC000558213406    0.0800
     44 H44        -1.0755    6.7761   57.3062 H       1  ZINC000558213406    0.0700
     45 H45        -0.5304    5.2320   58.0297 H       1  ZINC000558213406    0.0800
     46 H46         0.4598    5.0369   53.5184 H       1  ZINC000558213406    0.0900
     47 H47         2.5492    6.2841   53.9958 H       1  ZINC000558213406    0.0600
     48 H48         3.2755    4.8075   54.6743 H       1  ZINC000558213406    0.0700
     49 H49         2.2789    5.1464   51.8092 H       1  ZINC000558213406    0.0600
     50 H50         3.9833    5.1477   52.3223 H       1  ZINC000558213406    0.0700
     51 H51         3.3133    2.9190   51.4665 H       1  ZINC000558213406    0.0600
     52 H52         3.7217    2.8424   53.1972 H       1  ZINC000558213406    0.0600
     53 H53         0.9060    3.0718   52.0413 H       1  ZINC000558213406    0.0600
     54 H54         1.6324    1.5952   52.7198 H       1  ZINC000558213406    0.0700
     55 H55         1.9026    2.7329   54.9064 H       1  ZINC000558213406    0.0800
     56 H56         0.1982    2.7316   54.3933 H       1  ZINC000558213406    0.0600
     57 H57        -1.6857    4.0737   54.5985 H       1  ZINC000558213406    0.0800
     58 H58        -1.5579    5.7935   54.1349 H       1  ZINC000558213406    0.0800
@<TRIPOS>BOND
     1     1     2    2
     2     2     3   am
     3     2    17   am
     4     3     4    1
     5     3    32    1
     6     4    16   ar
     7     4     5   ar
     8     5     6   ar
     9     5    33    1
    10     6     7   ar
    11     6    34    1
    12     7     8    1
    13     7    15   ar
    14     8     9    1
    15     9    14   ar
    16     9    10   ar
    17    10    11   ar
    18    10    35    1
    19    11    12   ar
    20    11    36    1
    21    12    13   ar
    22    12    37    1
    23    13    14   ar
    24    14    38    1
    25    15    16   ar
    26    15    39    1
    27    16    40    1
    28    17    18    1
    29    17    41    1
    30    18    19    1
    31    18    31    1
    32    18    20    1
    33    20    21    1
    34    20    42    1
    35    20    43    1
    36    21    22    1
    37    21    44    1
    38    21    45    1
    39    22    23   am
    40    22    31    1
    41    23    24    2
    42    23    25    1
    43    25    30    1
    44    25    26    1
    45    25    46    1
    46    26    27    1
    47    26    47    1
    48    26    48    1
    49    27    28    1
    50    27    49    1
    51    27    50    1
    52    28    29    1
    53    28    51    1
    54    28    52    1
    55    29    30    1
    56    29    53    1
    57    29    54    1
    58    30    55    1
    59    30    56    1
    60    31    57    1
    61    31    58    1
@<TRIPOS>SUBSTRUCTURE
     1 ZINC000558213406        1 TEMP              0 ****  ****    0 ROOT


##########                                Name:    ZINC000271662144
##########                DOCK_Rotatable_Bonds:                   8
##########                         Heavy_Atoms:                  26
##########                    Molecular_Weight:             390.402
##########                DOCK_Rotatable_Bonds:                   8
##########                       Formal_Charge:          0.00999944
##########                     HBond_Acceptors:                   9
##########                        HBond_Donors:                   3
##########                         Heavy_Atoms:                  26
##########                          Grid_Score:          -23.895901
##########                     Grid_vdw_energy:          -24.081491
##########                      Grid_es_energy:            0.185591
##########           Internal_energy_repulsive:           16.137409

@<TRIPOS>MOLECULE
ZINC000271662144
 44 45 1 0 0
SMALL
USER_CHARGES


@<TRIPOS>ATOM
      1 C1         -9.6329    2.4617   60.0256 C.3     1  ZINC000271662144   -0.1400
      2 C2        -10.2344    1.6339   61.1630 C.3     1  ZINC000271662144    0.1200
      3 H3        -11.2194    2.0260   61.4161 H       1  ZINC000271662144    0.0600
      4 N4         -9.3593    1.7109   62.3404 N.3     1  ZINC000271662144   -0.6700
      5 C5        -10.0366    1.1884   63.5348 C.3     1  ZINC000271662144    0.1300
      6 H6        -10.3911    0.1766   63.3379 H       1  ZINC000271662144    0.1100
      7 C7         -9.0556    1.1659   64.7085 C.3     1  ZINC000271662144   -0.2000
      8 C8         -8.2446   -0.1310   64.6705 C.3     1  ZINC000271662144    0.4600
      9 F9         -7.0342    0.0560   65.3467 F       1  ZINC000271662144   -0.1800
     10 F10        -8.9713   -1.1538   65.2894 F       1  ZINC000271662144   -0.1800
     11 F11        -7.9867   -0.4809   63.3407 F       1  ZINC000271662144   -0.1700
     12 C12       -11.2076    2.0736   63.8757 C.ar    1  ZINC000271662144   -0.0900
     13 C13       -11.0008    3.2654   64.5450 C.ar    1  ZINC000271662144   -0.0600
     14 C14       -12.0739    4.0779   64.8581 C.ar    1  ZINC000271662144   -0.1600
     15 C15       -13.3566    3.6981   64.5009 C.ar    1  ZINC000271662144    0.1000
     16 F16       -14.4063    4.4919   64.8062 F       1  ZINC000271662144   -0.1400
     17 C17       -13.5625    2.5044   63.8301 C.ar    1  ZINC000271662144   -0.1500
     18 C18       -12.4873    1.6958   63.5139 C.ar    1  ZINC000271662144   -0.0700
     19 C19       -10.3626    0.1975   60.7256 C.ar    1  ZINC000271662144   -0.1100
     20 C20        -9.2535   -0.6271   60.7278 C.ar    1  ZINC000271662144   -0.0400
     21 C21        -9.3712   -1.9449   60.3264 C.ar    1  ZINC000271662144   -0.1400
     22 C22       -10.5979   -2.4377   59.9235 C.ar    1  ZINC000271662144   -0.0200
     23 C23       -11.7076   -1.6131   59.9220 C.ar    1  ZINC000271662144   -0.6800
     24 S24       -13.2715   -2.2412   59.4077 S.o2    1  ZINC000271662144    2.7000
     25 N25       -13.9554   -2.9868   60.7188 N.am    1  ZINC000271662144   -1.2500
     26 O26       -14.0831   -1.1107   59.1204 O.2     1  ZINC000271662144   -0.9600
     27 O27       -13.0008   -3.2647   58.4599 O.2     1  ZINC000271662144   -0.9600
     28 C28       -11.5909   -0.2969   60.3274 C.ar    1  ZINC000271662144   -0.0100
     29 H29        -9.5402    3.5007   60.3420 H       1  ZINC000271662144    0.0600
     30 H30        -8.6478    2.0697   59.7724 H       1  ZINC000271662144    0.0700
     31 H31       -10.2822    2.4046   59.1518 H       1  ZINC000271662144    0.0600
     32 H32        -8.4896    1.2262   62.1769 H       1  ZINC000271662144    0.3500
     33 H33        -8.3807    2.0186   64.6346 H       1  ZINC000271662144    0.1100
     34 H34        -9.6091    1.2208   65.6459 H       1  ZINC000271662144    0.1200
     35 H35       -10.0002    3.5615   64.8234 H       1  ZINC000271662144    0.1300
     36 H36       -11.9122    5.0086   65.3816 H       1  ZINC000271662144    0.1400
     37 H37       -14.5626    2.2070   63.5514 H       1  ZINC000271662144    0.1400
     38 H38       -12.6477    0.7649   62.9904 H       1  ZINC000271662144    0.1300
     39 H39        -8.2949   -0.2421   61.0426 H       1  ZINC000271662144    0.1400
     40 H40        -8.5043   -2.5893   60.3275 H       1  ZINC000271662144    0.1400
     41 H41       -10.6897   -3.4670   59.6092 H       1  ZINC000271662144    0.1400
     42 H42       -14.8287   -3.4014   60.6399 H       1  ZINC000271662144    0.4200
     43 H43       -13.4826   -3.0089   61.5654 H       1  ZINC000271662144    0.4200
     44 H44       -12.4576    0.3474   60.3263 H       1  ZINC000271662144    0.1400
@<TRIPOS>BOND
     1     1     2    1
     2     1    29    1
     3     1    30    1
     4     1    31    1
     5     2     3    1
     6     2     4    1
     7     2    19    1
     8     4     5    1
     9     4    32    1
    10     5     6    1
    11     5     7    1
    12     5    12    1
    13     7     8    1
    14     7    33    1
    15     7    34    1
    16     8     9    1
    17     8    10    1
    18     8    11    1
    19    12    18   ar
    20    12    13   ar
    21    13    14   ar
    22    13    35    1
    23    14    15   ar
    24    14    36    1
    25    15    16    1
    26    15    17   ar
    27    17    18   ar
    28    17    37    1
    29    18    38    1
    30    19    28   ar
    31    19    20   ar
    32    20    21   ar
    33    20    39    1
    34    21    22   ar
    35    21    40    1
    36    22    23   ar
    37    22    41    1
    38    23    24    1
    39    23    28   ar
    40    24    25   am
    41    24    26    2
    42    24    27    2
    43    25    42    1
    44    25    43    1
    45    28    44    1
@<TRIPOS>SUBSTRUCTURE
     1 ZINC000271662144        1 TEMP              0 ****  ****    0 ROOT


##########                                Name:    ZINC000050607728
##########                DOCK_Rotatable_Bonds:                  10
##########                         Heavy_Atoms:                  31
##########                    Molecular_Weight:             416.476
##########                DOCK_Rotatable_Bonds:                  10
##########                       Formal_Charge:          -0.0199995
##########                     HBond_Acceptors:                   6
##########                        HBond_Donors:                   1
##########                         Heavy_Atoms:                  31
##########                          Grid_Score:          -23.888815
##########                     Grid_vdw_energy:          -21.755955
##########                      Grid_es_energy:           -2.132860
##########           Internal_energy_repulsive:           22.046528

@<TRIPOS>MOLECULE
ZINC000050607728
 55 57 1 0 0
SMALL
USER_CHARGES


@<TRIPOS>ATOM
      1 C1        -11.7277    4.1016   61.5639 C.3     1  ZINC000050607728    0.0800
      2 N2        -13.0250    3.8539   62.1980 N.am    1  ZINC000050607728   -0.6200
      3 C3        -13.4878    4.7227   63.2828 C.3     1  ZINC000050607728    0.0700
      4 C4        -13.7926    2.8266   61.7832 C.2     1  ZINC000050607728    0.5600
      5 O5        -14.8688    2.6211   62.3093 O.2     1  ZINC000050607728   -0.5300
      6 C6        -13.3255    1.9498   60.6884 C.ar    1  ZINC000050607728   -0.1400
      7 C7        -13.8949    2.0506   59.4182 C.ar    1  ZINC000050607728   -0.0800
      8 C8        -13.4541    1.2297   58.4007 C.ar    1  ZINC000050607728   -0.1300
      9 C9        -12.4503    0.3076   58.6375 C.ar    1  ZINC000050607728   -0.0700
     10 C10       -11.8819    0.2020   59.8948 C.ar    1  ZINC000050607728   -0.1100
     11 C11       -10.7893   -0.8057   60.1438 C.3     1  ZINC000050607728    0.1100
     12 O12       -10.5421   -1.5617   58.9291 O.3     1  ZINC000050607728   -0.3400
     13 C13       -10.1093   -2.8240   59.0744 C.2     1  ZINC000050607728    0.4700
     14 O14        -9.7742   -3.2262   60.1633 O.2     1  ZINC000050607728   -0.5000
     15 C15       -10.0414   -3.7394   57.8792 C.3     1  ZINC000050607728    0.2000
     16 H16       -10.3504   -4.7429   58.1721 H       1  ZINC000050607728    0.1400
     17 N17       -10.9341   -3.2402   56.8303 N.am    1  ZINC000050607728   -0.7100
     18 C18       -12.2687   -3.2568   57.0171 C.2     1  ZINC000050607728    0.5700
     19 O19       -12.7317   -3.6845   58.0563 O.2     1  ZINC000050607728   -0.5200
     20 C20       -13.1696   -2.7547   55.9578 C.ar    1  ZINC000050607728   -0.1400
     21 C21       -14.5520   -2.7639   56.1507 C.ar    1  ZINC000050607728   -0.0800
     22 C22       -15.3870   -2.2935   55.1584 C.ar    1  ZINC000050607728   -0.1300
     23 C23       -14.8570   -1.8135   53.9740 C.ar    1  ZINC000050607728   -0.0900
     24 C24       -13.4877   -1.8019   53.7762 C.ar    1  ZINC000050607728   -0.1300
     25 C25       -12.6412   -2.2638   54.7628 C.ar    1  ZINC000050607728   -0.0600
     26 C26        -8.6280   -3.7812   57.3581 C.ar    1  ZINC000050607728   -0.1000
     27 C27        -8.3944   -3.8237   55.9964 C.ar    1  ZINC000050607728   -0.1000
     28 C28        -7.0979   -3.8620   55.5183 C.ar    1  ZINC000050607728   -0.1200
     29 C29        -6.0350   -3.8573   56.4021 C.ar    1  ZINC000050607728   -0.1100
     30 C30        -6.2686   -3.8139   57.7639 C.ar    1  ZINC000050607728   -0.1200
     31 C31        -7.5650   -3.7712   58.2418 C.ar    1  ZINC000050607728   -0.0800
     32 C32       -12.3091    1.0211   60.9191 C.ar    1  ZINC000050607728   -0.0400
     33 H33       -10.9528    3.5471   62.0933 H       1  ZINC000050607728    0.0600
     34 H34       -11.7628    3.7745   60.5247 H       1  ZINC000050607728    0.0800
     35 H35       -11.5022    5.1673   61.6020 H       1  ZINC000050607728    0.0700
     36 H36       -13.9821    5.5981   62.8615 H       1  ZINC000050607728    0.0600
     37 H37       -14.1906    4.1760   63.9116 H       1  ZINC000050607728    0.0800
     38 H38       -12.6350    5.0406   63.8828 H       1  ZINC000050607728    0.0700
     39 H39       -14.6790    2.7697   59.2323 H       1  ZINC000050607728    0.1400
     40 H40       -13.8938    1.3067   57.4173 H       1  ZINC000050607728    0.1400
     41 H41       -12.1092   -0.3330   57.8378 H       1  ZINC000050607728    0.1300
     42 H42        -9.8778   -0.2873   60.4410 H       1  ZINC000050607728    0.0900
     43 H43       -11.0964   -1.4854   60.9387 H       1  ZINC000050607728    0.0900
     44 H44       -10.5645   -2.8978   56.0014 H       1  ZINC000050607728    0.4100
     45 H45       -14.9670   -3.1390   57.0746 H       1  ZINC000050607728    0.1300
     46 H46       -16.4568   -2.3001   55.3065 H       1  ZINC000050607728    0.1300
     47 H47       -15.5151   -1.4466   53.2002 H       1  ZINC000050607728    0.1300
     48 H48       -13.0803   -1.4263   52.8492 H       1  ZINC000050607728    0.1300
     49 H49       -11.5725   -2.2539   54.6073 H       1  ZINC000050607728    0.1400
     50 H50        -9.2248   -3.8273   55.3059 H       1  ZINC000050607728    0.1200
     51 H51        -6.9154   -3.8959   54.4544 H       1  ZINC000050607728    0.1200
     52 H52        -5.0221   -3.8879   56.0286 H       1  ZINC000050607728    0.1200
     53 H53        -5.4381   -3.8105   58.4544 H       1  ZINC000050607728    0.1300
     54 H54        -7.7474   -3.7374   59.3057 H       1  ZINC000050607728    0.1300
     55 H55       -11.8644    0.9380   61.8998 H       1  ZINC000050607728    0.1300
@<TRIPOS>BOND
     1     1     2    1
     2     1    33    1
     3     1    34    1
     4     1    35    1
     5     2     3    1
     6     2     4   am
     7     3    36    1
     8     3    37    1
     9     3    38    1
    10     4     5    2
    11     4     6    1
    12     6    32   ar
    13     6     7   ar
    14     7     8   ar
    15     7    39    1
    16     8     9   ar
    17     8    40    1
    18     9    10   ar
    19     9    41    1
    20    10    11    1
    21    10    32   ar
    22    11    12    1
    23    11    42    1
    24    11    43    1
    25    12    13    1
    26    13    14    2
    27    13    15    1
    28    15    16    1
    29    15    17    1
    30    15    26    1
    31    17    18   am
    32    17    44    1
    33    18    19    2
    34    18    20    1
    35    20    25   ar
    36    20    21   ar
    37    21    22   ar
    38    21    45    1
    39    22    23   ar
    40    22    46    1
    41    23    24   ar
    42    23    47    1
    43    24    25   ar
    44    24    48    1
    45    25    49    1
    46    26    31   ar
    47    26    27   ar
    48    27    28   ar
    49    27    50    1
    50    28    29   ar
    51    28    51    1
    52    29    30   ar
    53    29    52    1
    54    30    31   ar
    55    30    53    1
    56    31    54    1
    57    32    55    1
@<TRIPOS>SUBSTRUCTURE
     1 ZINC000050607728        1 TEMP              0 ****  ****    0 ROOT


##########                                Name:    ZINC000435292384
##########                DOCK_Rotatable_Bonds:                   6
##########                         Heavy_Atoms:                  22
##########                    Molecular_Weight:             326.503
##########                DOCK_Rotatable_Bonds:                   6
##########                       Formal_Charge:         -0.00999993
##########                     HBond_Acceptors:                   5
##########                        HBond_Donors:                   0
##########                         Heavy_Atoms:                  22
##########                          Grid_Score:          -23.838581
##########                     Grid_vdw_energy:          -23.918690
##########                      Grid_es_energy:            0.080109
##########           Internal_energy_repulsive:           34.962883

@<TRIPOS>MOLECULE
ZINC000435292384
 52 53 1 0 0
SMALL
USER_CHARGES


@<TRIPOS>ATOM
      1 C1         -6.4816   -3.6799   57.9766 C.3     1  ZINC000435292384   -0.1500
      2 C2         -8.0020   -3.8497   57.9699 C.3     1  ZINC000435292384   -0.1200
      3 C3         -8.6297   -2.8633   58.9568 C.3     1  ZINC000435292384   -0.1400
      4 C4        -10.0985   -3.2296   59.1795 C.3     1  ZINC000435292384    0.1600
      5 H5        -10.1593   -4.1509   59.7588 H       1  ZINC000435292384    0.0900
      6 C6        -10.7845   -3.4315   57.8269 C.3     1  ZINC000435292384   -0.1700
      7 N7        -10.7661   -2.1488   59.9091 N.am    1  ZINC000435292384   -0.6100
      8 C8        -10.0680   -1.0299   60.5531 C.3     1  ZINC000435292384    0.1200
      9 C9        -11.1501    0.0452   60.7974 C.3     1  ZINC000435292384   -0.1300
     10 H10       -11.1954    0.7489   59.9663 H       1  ZINC000435292384    0.1100
     11 C11       -10.9097    0.7664   62.0986 C.2     1  ZINC000435292384    0.5200
     12 O12       -10.2035    0.2656   62.9479 O.2     1  ZINC000435292384   -0.5200
     13 N13       -11.4796    1.9677   62.3185 N.am    1  ZINC000435292384   -0.6000
     14 C14       -11.2239    2.6476   63.6035 C.3     1  ZINC000435292384    0.1000
     15 C15       -10.9687    4.1548   63.4218 C.3     1  ZINC000435292384   -0.1300
     16 C16       -10.1093    4.3920   62.2044 C.3     1  ZINC000435292384   -0.1100
     17 C17       -11.0045    4.6201   60.9903 C.3     1  ZINC000435292384   -0.1200
     18 C18       -11.4481    3.3860   60.3241 C.3     1  ZINC000435292384   -0.0700
     19 H19       -10.5762    2.8071   60.0192 H       1  ZINC000435292384    0.0900
     20 S20       -12.4272    3.8136   58.8581 S.3     1  ZINC000435292384   -0.2500
     21 C21       -11.2335    4.6920   57.8121 C.3     1  ZINC000435292384   -0.1200
     22 C22       -12.3115    2.5399   61.2838 C.3     1  ZINC000435292384    0.1400
     23 C23       -12.4354   -0.8114   60.8678 C.3     1  ZINC000435292384   -0.1400
     24 C24       -12.0971   -2.0515   60.0700 C.2     1  ZINC000435292384    0.5200
     25 O25       -12.9082   -2.8461   59.6439 O.2     1  ZINC000435292384   -0.5200
     26 H26        -6.0343   -4.3827   57.2736 H       1  ZINC000435292384    0.0500
     27 H27        -6.2284   -2.6613   57.6827 H       1  ZINC000435292384    0.0500
     28 H28        -6.0986   -3.8749   58.9784 H       1  ZINC000435292384    0.0500
     29 H29        -8.3850   -3.6548   56.9682 H       1  ZINC000435292384    0.0600
     30 H30        -8.2552   -4.8684   58.2639 H       1  ZINC000435292384    0.0600
     31 H31        -8.0959   -2.9096   59.9060 H       1  ZINC000435292384    0.0800
     32 H32        -8.5645   -1.8534   58.5521 H       1  ZINC000435292384    0.0800
     33 H33       -10.7236   -2.5102   57.2475 H       1  ZINC000435292384    0.0700
     34 H34       -10.2877   -4.2355   57.2839 H       1  ZINC000435292384    0.0700
     35 H35       -11.8308   -3.6923   57.9854 H       1  ZINC000435292384    0.0600
     36 H36        -9.6344   -1.3508   61.5003 H       1  ZINC000435292384    0.0900
     37 H37        -9.2914   -0.6407   59.8946 H       1  ZINC000435292384    0.0800
     38 H38       -12.0876    2.5108   64.2543 H       1  ZINC000435292384    0.0700
     39 H39       -10.3518    2.1954   64.0758 H       1  ZINC000435292384    0.0900
     40 H40       -11.9210    4.6704   63.2980 H       1  ZINC000435292384    0.0700
     41 H41       -10.4609    4.5444   64.3042 H       1  ZINC000435292384    0.0800
     42 H42        -9.4845    5.2705   62.3659 H       1  ZINC000435292384    0.0700
     43 H43        -9.4762    3.5218   62.0311 H       1  ZINC000435292384    0.0600
     44 H44       -11.8855    5.1769   61.3096 H       1  ZINC000435292384    0.0800
     45 H45       -10.4592    5.2268   60.2673 H       1  ZINC000435292384    0.0600
     46 H46       -10.8649    5.5710   58.3407 H       1  ZINC000435292384    0.0800
     47 H47       -10.3984    4.0309   57.5799 H       1  ZINC000435292384    0.0800
     48 H48       -11.7198    5.0017   56.8870 H       1  ZINC000435292384    0.1000
     49 H49       -12.7955    1.7385   60.7257 H       1  ZINC000435292384    0.0900
     50 H50       -13.0716    3.1730   61.7417 H       1  ZINC000435292384    0.0900
     51 H51       -12.6659   -1.0693   61.9015 H       1  ZINC000435292384    0.1100
     52 H52       -13.2716   -0.2830   60.4099 H       1  ZINC000435292384    0.1100
@<TRIPOS>BOND
     1     1     2    1
     2     1    26    1
     3     1    27    1
     4     1    28    1
     5     2     3    1
     6     2    29    1
     7     2    30    1
     8     3     4    1
     9     3    31    1
    10     3    32    1
    11     4     5    1
    12     4     6    1
    13     4     7    1
    14     6    33    1
    15     6    34    1
    16     6    35    1
    17     7    24   am
    18     7     8    1
    19     8     9    1
    20     8    36    1
    21     8    37    1
    22     9    10    1
    23     9    11    1
    24     9    23    1
    25    11    12    2
    26    11    13   am
    27    13    22    1
    28    13    14    1
    29    14    15    1
    30    14    38    1
    31    14    39    1
    32    15    16    1
    33    15    40    1
    34    15    41    1
    35    16    17    1
    36    16    42    1
    37    16    43    1
    38    17    18    1
    39    17    44    1
    40    17    45    1
    41    18    19    1
    42    18    20    1
    43    18    22    1
    44    20    21    1
    45    21    46    1
    46    21    47    1
    47    21    48    1
    48    22    49    1
    49    22    50    1
    50    23    24    1
    51    23    51    1
    52    23    52    1
    53    24    25    2
@<TRIPOS>SUBSTRUCTURE
     1 ZINC000435292384        1 TEMP              0 ****  ****    0 ROOT


##########                                Name:    ZINC000286156371
##########                DOCK_Rotatable_Bonds:                   7
##########                         Heavy_Atoms:                  25
##########                    Molecular_Weight:             350.418
##########                DOCK_Rotatable_Bonds:                   7
##########                       Formal_Charge:          0.00999908
##########                     HBond_Acceptors:                   8
##########                        HBond_Donors:                   2
##########                         Heavy_Atoms:                  25
##########                          Grid_Score:          -23.808359
##########                     Grid_vdw_energy:          -23.125586
##########                      Grid_es_energy:           -0.682774
##########           Internal_energy_repulsive:           34.216404

@<TRIPOS>MOLECULE
ZINC000286156371
 51 53 1 0 0
SMALL
USER_CHARGES


@<TRIPOS>ATOM
      1 C1        -12.7132    4.9848   61.6096 C.3     1  <0>        -0.1800
      2 C2        -13.5501    3.7049   61.6617 C.3     1  <0>         0.1400
      3 C3        -13.9531    3.4177   63.1094 C.3     1  <0>        -0.1800
      4 C4        -14.8072    3.8826   60.8079 C.3     1  <0>        -0.1400
      5 O5        -12.7686    2.5945   61.1474 O.3     1  <0>        -0.3600
      6 C6        -13.3641    1.3872   61.1234 C.2     1  <0>         0.6800
      7 O7        -14.5057    1.2650   61.5214 O.2     1  <0>        -0.5600
      8 N8        -12.6941    0.3145   60.6580 N.am    1  <0>        -0.5800
      9 C9        -13.2228   -1.0593   60.5755 C.3     1  <0>         0.0700
     10 C10       -12.3870   -1.7398   59.4628 C.3     1  <0>         0.0900
     11 H11       -12.3644   -2.8211   59.5972 H       1  <0>         0.0900
     12 O12       -12.8837   -1.3975   58.1674 O.3     1  <0>        -0.5500
     13 C13       -10.9850   -1.1200   59.7033 C.3     1  <0>        -0.1200
     14 C14       -11.3172    0.3215   60.1425 C.3     1  <0>         0.1500
     15 H15       -11.2388    0.9961   59.2900 H       1  <0>         0.1100
     16 C16       -10.3692    0.7574   61.2298 C.2     1  <0>         0.5200
     17 O17        -9.4542    1.5103   60.9708 O.2     1  <0>        -0.4900
     18 N18       -10.5380    0.3105   62.4901 N.am    1  <0>        -0.6300
     19 C19        -9.6573    0.7172   63.5017 C.2     1  <0>         0.3000
     20 N20        -8.8411   -0.0631   64.1735 N.2     1  <0>        -0.3200
     21 N21        -8.1382    0.7269   65.0859 N.pl3   1  <0>        -0.3600
     22 C22        -7.1188    0.2891   66.0444 C.3     1  <0>         0.1400
     23 C23        -6.3268    1.5129   66.5164 C.3     1  <0>        -0.1400
     24 C24        -7.2969    2.6062   66.9738 C.3     1  <0>        -0.1300
     25 C25        -8.0366    3.1675   65.7523 C.3     1  <0>        -0.0600
     26 C26        -8.5575    2.0056   64.9426 C.2     1  <0>         0.0900
     27 C27        -9.4891    2.0320   63.9700 C.2     1  <0>        -0.2600
     28 H28       -11.8176    4.8583   62.2178 H       1  <0>         0.0900
     29 H29       -12.4262    5.1894   60.5782 H       1  <0>         0.0600
     30 H30       -13.2999    5.8184   61.9956 H       1  <0>         0.0700
     31 H31       -14.5397    4.2513   63.4955 H       1  <0>         0.0700
     32 H32       -14.5494    2.5060   63.1465 H       1  <0>         0.0600
     33 H33       -13.0575    3.2912   63.7177 H       1  <0>         0.0900
     34 H34       -14.5201    4.0871   59.7765 H       1  <0>         0.0700
     35 H35       -15.4034    2.9708   60.8450 H       1  <0>         0.0700
     36 H36       -15.3939    4.7162   61.1940 H       1  <0>         0.0800
     37 H37       -13.0836   -1.5769   61.5247 H       1  <0>         0.0800
     38 H38       -14.2777   -1.0440   60.3019 H       1  <0>         0.0900
     39 H39       -12.4785   -1.8979   57.4459 H       1  <0>         0.3900
     40 H40       -10.4568   -1.6555   60.4923 H       1  <0>         0.1000
     41 H41       -10.4022   -1.1155   58.7822 H       1  <0>         0.1100
     42 H42       -11.2691   -0.2925   62.6971 H       1  <0>         0.4200
     43 H43        -7.6010   -0.1859   66.8988 H       1  <0>         0.0800
     44 H44        -6.4446   -0.4190   65.5627 H       1  <0>         0.0900
     45 H45        -5.6814    1.2293   67.3477 H       1  <0>         0.0900
     46 H46        -5.7166    1.8894   65.6953 H       1  <0>         0.0800
     47 H47        -8.0178    2.1838   67.6738 H       1  <0>         0.0700
     48 H48        -6.7402    3.4063   67.4616 H       1  <0>         0.0800
     49 H49        -8.8692    3.7897   66.0804 H       1  <0>         0.0900
     50 H50        -7.3504    3.7595   65.1468 H       1  <0>         0.0900
     51 H51       -10.0144    2.9064   63.6152 H       1  <0>         0.1700
@<TRIPOS>BOND
     1     1     2    1
     2     1    28    1
     3     1    29    1
     4     1    30    1
     5     2     3    1
     6     2     4    1
     7     2     5    1
     8     3    31    1
     9     3    32    1
    10     3    33    1
    11     4    34    1
    12     4    35    1
    13     4    36    1
    14     5     6    1
    15     6     7    2
    16     6     8   am
    17     8    14    1
    18     8     9    1
    19     9    10    1
    20     9    37    1
    21     9    38    1
    22    10    11    1
    23    10    12    1
    24    10    13    1
    25    12    39    1
    26    13    14    1
    27    13    40    1
    28    13    41    1
    29    14    15    1
    30    14    16    1
    31    16    17    2
    32    16    18   am
    33    18    19    1
    34    18    42    1
    35    19    27    1
    36    19    20    2
    37    20    21    1
    38    21    26    1
    39    21    22    1
    40    22    23    1
    41    22    43    1
    42    22    44    1
    43    23    24    1
    44    23    45    1
    45    23    46    1
    46    24    25    1
    47    24    47    1
    48    24    48    1
    49    25    26    1
    50    25    49    1
    51    25    50    1
    52    26    27    2
    53    27    51    1
@<TRIPOS>SUBSTRUCTURE
     1 <0>         1 TEMP              0 ****  ****    0 ROOT


##########                                Name:    ZINC000364058410
##########                DOCK_Rotatable_Bonds:                   5
##########                         Heavy_Atoms:                  25
##########                    Molecular_Weight:             358.464
##########                DOCK_Rotatable_Bonds:                   5
##########                       Formal_Charge:           0.0100002
##########                     HBond_Acceptors:                   7
##########                        HBond_Donors:                   0
##########                         Heavy_Atoms:                  25
##########                          Grid_Score:          -23.797390
##########                     Grid_vdw_energy:          -19.528629
##########                      Grid_es_energy:           -4.268760
##########           Internal_energy_repulsive:           68.304207

@<TRIPOS>MOLECULE
ZINC000364058410
 47 50 1 0 0
SMALL
USER_CHARGES


@<TRIPOS>ATOM
      1 C1         -9.3228   -3.3478   58.7860 C.3     1  ZINC000364058410   -0.0700
      2 C2        -10.4008   -2.2951   58.8145 C.2     1  ZINC000364058410   -0.2500
      3 C3        -11.5237   -2.2850   58.0595 C.2     1  ZINC000364058410    0.0800
      4 N4        -12.2260   -1.1786   58.3819 N.pl3   1  ZINC000364058410   -0.3600
      5 C5        -13.5096   -0.7737   57.8035 C.3     1  ZINC000364058410    0.1300
      6 C6        -14.7180   -1.0640   58.7121 C.3     1  ZINC000364058410    0.1100
      7 N7        -14.5087    0.2923   59.2548 N.am    1  ZINC000364058410   -0.6500
      8 C8        -14.8079    0.9000   60.4199 C.2     1  ZINC000364058410    0.5600
      9 O9        -15.3793    0.2852   61.2952 O.2     1  ZINC000364058410   -0.5000
     10 C10       -14.4325    2.3436   60.6349 C.3     1  ZINC000364058410    0.1400
     11 H11       -14.1515    2.7938   59.6828 H       1  ZINC000364058410    0.0900
     12 C12       -15.6241    3.1011   61.2292 C.3     1  ZINC000364058410   -0.1200
     13 C13       -15.1951    4.5290   61.5742 C.3     1  ZINC000364058410   -0.1200
     14 C14       -14.0779    4.4893   62.6195 C.3     1  ZINC000364058410   -0.1400
     15 C15       -12.8688    3.7476   62.0408 C.3     1  ZINC000364058410    0.1000
     16 N16       -13.3027    2.4247   61.5706 N.am    1  ZINC000364058410   -0.6000
     17 C17       -12.6792    1.3071   61.9936 C.2     1  ZINC000364058410    0.5900
     18 O18       -13.0481    0.2173   61.5967 O.2     1  ZINC000364058410   -0.4900
     19 C19       -11.5571    1.4042   62.9317 C.2     1  ZINC000364058410   -0.2600
     20 C20       -10.2349    1.4199   62.5870 C.2     1  ZINC000364058410   -0.0600
     21 C21        -9.3923    1.5185   63.6686 C.2     1  ZINC000364058410   -0.1400
     22 C22       -10.0011    1.5816   64.8587 C.2     1  ZINC000364058410   -0.2400
     23 S23       -11.6970    1.5269   64.6801 S.3     1  ZINC000364058410    0.2100
     24 C24       -13.8399    0.7158   58.0092 C.3     1  ZINC000364058410    0.0900
     25 N25       -11.5111   -0.4860   59.3676 N.2     1  ZINC000364058410   -0.3000
     26 C26       -10.4203   -1.1592   59.6304 C.2     1  ZINC000364058410    0.0500
     27 H27        -9.5608   -4.1313   59.5053 H       1  ZINC000364058410    0.0600
     28 H28        -9.2617   -3.7784   57.7865 H       1  ZINC000364058410    0.0600
     29 H29        -8.3658   -2.8949   59.0456 H       1  ZINC000364058410    0.0600
     30 H30       -11.8070   -3.0289   57.3297 H       1  ZINC000364058410    0.1700
     31 H31       -13.6391   -1.1141   56.7762 H       1  ZINC000364058410    0.1300
     32 H32       -15.6568   -1.1805   58.1706 H       1  ZINC000364058410    0.1100
     33 H33       -14.5420   -1.8592   59.4366 H       1  ZINC000364058410    0.0900
     34 H34       -16.4356    3.1306   60.5022 H       1  ZINC000364058410    0.0800
     35 H35       -15.9629    2.5946   62.1330 H       1  ZINC000364058410    0.0800
     36 H36       -14.8332    5.0268   60.6746 H       1  ZINC000364058410    0.0700
     37 H37       -16.0477    5.0776   61.9745 H       1  ZINC000364058410    0.0800
     38 H38       -13.7890    5.5070   62.8819 H       1  ZINC000364058410    0.0800
     39 H39       -14.4314    3.9698   63.5101 H       1  ZINC000364058410    0.0700
     40 H40       -12.4587    4.3139   61.2047 H       1  ZINC000364058410    0.0800
     41 H41       -12.1086    3.6300   62.8130 H       1  ZINC000364058410    0.0900
     42 H42        -9.8866    1.3603   61.5664 H       1  ZINC000364058410    0.1500
     43 H43        -8.3174    1.5429   63.5656 H       1  ZINC000364058410    0.1500
     44 H44        -9.4875    1.6607   65.8055 H       1  ZINC000364058410    0.1700
     45 H45       -12.9626    1.3418   58.1725 H       1  ZINC000364058410    0.0900
     46 H46       -14.5208    1.1223   57.2613 H       1  ZINC000364058410    0.1100
     47 H47        -9.6624   -0.8818   60.3479 H       1  ZINC000364058410    0.1800
@<TRIPOS>BOND
     1     1     2    1
     2     1    27    1
     3     1    28    1
     4     1    29    1
     5     2    26    1
     6     2     3    2
     7     3     4    1
     8     3    30    1
     9     4     5    1
    10     4    25    1
    11     5    24    1
    12     5     6    1
    13     5    31    1
    14     6     7    1
    15     6    32    1
    16     6    33    1
    17     7     8   am
    18     7    24    1
    19     8     9    2
    20     8    10    1
    21    10    11    1
    22    10    16    1
    23    10    12    1
    24    12    13    1
    25    12    34    1
    26    12    35    1
    27    13    14    1
    28    13    36    1
    29    13    37    1
    30    14    15    1
    31    14    38    1
    32    14    39    1
    33    15    16    1
    34    15    40    1
    35    15    41    1
    36    16    17   am
    37    17    18    2
    38    17    19    1
    39    19    23    1
    40    19    20    2
    41    20    21    1
    42    20    42    1
    43    21    22    2
    44    21    43    1
    45    22    23    1
    46    22    44    1
    47    24    45    1
    48    24    46    1
    49    25    26    2
    50    26    47    1
@<TRIPOS>SUBSTRUCTURE
     1 ZINC000364058410        1 TEMP              0 ****  ****    0 ROOT


##########                                Name:    ZINC000543429378
##########                DOCK_Rotatable_Bonds:                   6
##########                         Heavy_Atoms:                  29
##########                    Molecular_Weight:             406.408
##########                DOCK_Rotatable_Bonds:                   6
##########                       Formal_Charge:           0.0100003
##########                     HBond_Acceptors:                   9
##########                        HBond_Donors:                   1
##########                         Heavy_Atoms:                  29
##########                          Grid_Score:          -23.645006
##########                     Grid_vdw_energy:          -21.844387
##########                      Grid_es_energy:           -1.800620
##########           Internal_energy_repulsive:          194.018341

@<TRIPOS>MOLECULE
ZINC000543429378
 50 53 1 0 0
SMALL
USER_CHARGES


@<TRIPOS>ATOM
      1 O1        -10.4114    1.4857   59.9863 O.2     1  ZINC000543429378   -0.5100
      2 C2        -10.3390    0.8188   60.9967 C.2     1  ZINC000543429378    0.5200
      3 N3         -9.8276    1.3546   62.1227 N.am    1  ZINC000543429378   -0.6600
      4 C4         -9.3747    2.6785   62.1244 C.ar    1  ZINC000543429378    0.1900
      5 C5         -8.8465    3.2311   63.2839 C.ar    1  ZINC000543429378   -0.1600
      6 C6         -8.3989    4.5383   63.2855 C.ar    1  ZINC000543429378   -0.0600
      7 C7         -8.4759    5.2990   62.1346 C.ar    1  ZINC000543429378   -0.2100
      8 C8         -9.0029    4.7518   60.9728 C.ar    1  ZINC000543429378    0.1300
      9 O9         -9.0780    5.5011   59.8416 O.3     1  ZINC000543429378   -0.3100
     10 C10        -9.6321    4.8737   58.6834 C.3     1  ZINC000543429378    0.6000
     11 F11        -9.6353    5.7807   57.6182 F       1  ZINC000543429378   -0.1600
     12 F12        -8.8601    3.7577   58.3433 F       1  ZINC000543429378   -0.1300
     13 F13       -10.9433    4.4685   58.9548 F       1  ZINC000543429378   -0.1600
     14 C14        -9.4476    3.4392   60.9658 C.ar    1  ZINC000543429378   -0.1300
     15 C15       -10.8267   -0.6071   60.9949 C.3     1  ZINC000543429378    0.0700
     16 H16       -10.2587   -1.1947   61.7161 H       1  ZINC000543429378    0.1200
     17 C17       -10.6718   -1.2178   59.5751 C.3     1  ZINC000543429378   -0.1200
     18 C18       -11.9436   -2.0720   59.4584 C.3     1  ZINC000543429378   -0.1000
     19 H19       -11.8379   -3.0091   60.0049 H       1  ZINC000543429378    0.0900
     20 C20       -12.4299   -2.3205   58.0407 C.3     1  ZINC000543429378   -0.1100
     21 C21       -13.7654   -3.0744   58.1416 C.3     1  ZINC000543429378   -0.1200
     22 C22       -14.7941   -2.2845   58.9453 C.3     1  ZINC000543429378   -0.1100
     23 C23       -14.2530   -1.9119   60.3356 C.3     1  ZINC000543429378   -0.0900
     24 C24       -12.9724   -1.1329   60.1449 C.3     1  ZINC000543429378    0.0700
     25 H25       -13.1599   -0.2904   59.4792 H       1  ZINC000543429378    0.0900
     26 N26       -12.2730   -0.6483   61.3348 N.3     1  ZINC000543429378   -0.4300
     27 C27       -12.7230    0.6095   61.6969 C.ar    1  ZINC000543429378    0.5000
     28 N28       -12.7469    0.9435   62.9789 N.ar    1  ZINC000543429378   -0.5300
     29 C29       -13.1706    2.1376   63.3587 C.ar    1  ZINC000543429378    0.1800
     30 C30       -13.5924    3.0427   62.3974 C.ar    1  ZINC000543429378   -0.2500
     31 C31       -13.5543    2.6606   61.0656 C.ar    1  ZINC000543429378    0.1800
     32 N32       -13.1145    1.4529   60.7531 N.ar    1  ZINC000543429378   -0.5300
     33 H33        -9.7734    0.8224   62.9318 H       1  ZINC000543429378    0.4200
     34 H34        -8.7860    2.6389   64.1851 H       1  ZINC000543429378    0.1400
     35 H35        -7.9886    4.9664   64.1880 H       1  ZINC000543429378    0.1400
     36 H36        -8.1259    6.3206   62.1390 H       1  ZINC000543429378    0.1400
     37 H37        -9.8579    3.0118   60.0628 H       1  ZINC000543429378    0.1500
     38 H38       -10.6555   -0.4372   58.8146 H       1  ZINC000543429378    0.0800
     39 H39        -9.7782   -1.8390   59.5133 H       1  ZINC000543429378    0.0900
     40 H40       -12.5782   -1.3703   57.5276 H       1  ZINC000543429378    0.0700
     41 H41       -11.7023   -2.9256   57.4998 H       1  ZINC000543429378    0.0700
     42 H42       -14.1538   -3.2469   57.1378 H       1  ZINC000543429378    0.0600
     43 H43       -13.5962   -4.0356   58.6268 H       1  ZINC000543429378    0.0600
     44 H44       -15.0454   -1.3723   58.4041 H       1  ZINC000543429378    0.0600
     45 H45       -15.6944   -2.8876   59.0628 H       1  ZINC000543429378    0.0700
     46 H46       -14.9832   -1.3006   60.8659 H       1  ZINC000543429378    0.0700
     47 H47       -14.0417   -2.8166   60.9058 H       1  ZINC000543429378    0.0700
     48 H48       -13.1881    2.4039   64.4052 H       1  ZINC000543429378    0.1600
     49 H49       -13.9435    4.0241   62.6800 H       1  ZINC000543429378    0.1400
     50 H50       -13.8763    3.3421   60.2921 H       1  ZINC000543429378    0.1600
@<TRIPOS>BOND
     1     1     2    2
     2     2     3   am
     3     2    15    1
     4     3     4    1
     5     3    33    1
     6     4    14   ar
     7     4     5   ar
     8     5     6   ar
     9     5    34    1
    10     6     7   ar
    11     6    35    1
    12     7     8   ar
    13     7    36    1
    14     8     9    1
    15     8    14   ar
    16     9    10    1
    17    10    11    1
    18    10    12    1
    19    10    13    1
    20    14    37    1
    21    15    16    1
    22    15    26    1
    23    15    17    1
    24    17    18    1
    25    17    38    1
    26    17    39    1
    27    18    19    1
    28    18    24    1
    29    18    20    1
    30    20    21    1
    31    20    40    1
    32    20    41    1
    33    21    22    1
    34    21    42    1
    35    21    43    1
    36    22    23    1
    37    22    44    1
    38    22    45    1
    39    23    24    1
    40    23    46    1
    41    23    47    1
    42    24    25    1
    43    24    26    1
    44    26    27    1
    45    27    32   ar
    46    27    28   ar
    47    28    29   ar
    48    29    30   ar
    49    29    48    1
    50    30    31   ar
    51    30    49    1
    52    31    32   ar
    53    31    50    1
@<TRIPOS>SUBSTRUCTURE
     1 ZINC000543429378        1 TEMP              0 ****  ****    0 ROOT


##########                                Name:    ZINC000971513996
##########                DOCK_Rotatable_Bonds:                   6
##########                         Heavy_Atoms:                  27
##########                    Molecular_Weight:             369.464
##########                DOCK_Rotatable_Bonds:                   6
##########                       Formal_Charge:          -0.0300002
##########                     HBond_Acceptors:                   6
##########                        HBond_Donors:                   1
##########                         Heavy_Atoms:                  27
##########                          Grid_Score:          -23.589008
##########                     Grid_vdw_energy:          -20.476358
##########                      Grid_es_energy:           -3.112651
##########           Internal_energy_repulsive:           24.716410

@<TRIPOS>MOLECULE
ZINC000971513996
 54 57 1 0 0
SMALL
USER_CHARGES


@<TRIPOS>ATOM
      1 C1         -7.8721    4.0660   65.1912 C.3     1  ZINC000971513996   -0.1600
      2 C2         -8.2746    2.6804   65.7003 C.3     1  ZINC000971513996   -0.1400
      3 C3         -8.9550    1.9008   64.5734 C.3     1  ZINC000971513996    0.0800
      4 H4         -8.2642    1.7940   63.7370 H       1  ZINC000971513996    0.0800
      5 O5         -9.3309    0.6067   65.0488 O.3     1  ZINC000971513996   -0.3600
      6 C6         -8.2332   -0.1861   65.5057 C.3     1  ZINC000971513996    0.0200
      7 C7        -10.1837    2.6452   64.1182 C.2     1  ZINC000971513996    0.5400
      8 O8        -11.2420    2.4722   64.6846 O.2     1  ZINC000971513996   -0.5100
      9 N9        -10.1064    3.5033   63.0818 N.am    1  ZINC000971513996   -0.6400
     10 C10        -9.0578    3.9785   62.1632 C.3     1  ZINC000971513996    0.1000
     11 C11       -10.1660    4.1996   61.1157 C.3     1  ZINC000971513996   -0.1200
     12 H12       -10.0491    5.0927   60.5018 H       1  ZINC000971513996    0.1100
     13 C13       -10.4351    2.9261   60.3103 C.3     1  ZINC000971513996   -0.1200
     14 C14       -11.9375    2.8113   60.0359 C.3     1  ZINC000971513996    0.1100
     15 N15       -12.6388    2.7919   61.3223 N.am    1  ZINC000971513996   -0.6000
     16 C16       -13.4553    1.7626   61.6232 C.2     1  ZINC000971513996    0.5900
     17 O17       -14.0399    1.7417   62.6897 O.2     1  ZINC000971513996   -0.5200
     18 C18       -13.6394    0.6649   60.6621 C.2     1  ZINC000971513996    0.0200
     19 C19       -14.4633    0.6936   59.5821 C.2     1  ZINC000971513996   -0.1000
     20 C20       -14.3499   -0.5528   58.9200 C.ar    1  ZINC000971513996   -0.1100
     21 C21       -14.9469   -1.0906   57.7728 C.ar    1  ZINC000971513996   -0.0600
     22 C22       -14.6289   -2.3556   57.3715 C.ar    1  ZINC000971513996   -0.1200
     23 C23       -15.2732   -2.9312   56.1367 C.3     1  ZINC000971513996   -0.1100
     24 C24       -13.7166   -3.1175   58.0902 C.ar    1  ZINC000971513996   -0.0800
     25 C25       -13.1162   -2.6111   59.2214 C.ar    1  ZINC000971513996   -0.1300
     26 C26       -13.4245   -1.3236   59.6511 C.ar    1  ZINC000971513996    0.1100
     27 N27       -12.9977   -0.5576   60.7101 N.pl3   1  ZINC000971513996   -0.5800
     28 C28       -12.4603    3.8762   62.2790 C.3     1  ZINC000971513996    0.0700
     29 C29       -11.0287    4.3796   62.3560 C.3     1  ZINC000971513996    0.1300
     30 H30       -10.9889    5.4009   62.7348 H       1  ZINC000971513996    0.1100
     31 H31        -7.4825    4.6583   66.0192 H       1  ZINC000971513996    0.0600
     32 H32        -7.1035    3.9625   64.4253 H       1  ZINC000971513996    0.0600
     33 H33        -8.7436    4.5643   64.7664 H       1  ZINC000971513996    0.0600
     34 H34        -7.3858    2.1420   66.0295 H       1  ZINC000971513996    0.0800
     35 H35        -8.9653    2.7871   66.5368 H       1  ZINC000971513996    0.0800
     36 H36        -7.5785   -0.4185   64.6658 H       1  ZINC000971513996    0.0400
     37 H37        -7.6741    0.3677   66.2598 H       1  ZINC000971513996    0.0500
     38 H38        -8.6099   -1.1122   65.9399 H       1  ZINC000971513996    0.0900
     39 H39        -8.5780    4.9009   62.4903 H       1  ZINC000971513996    0.0900
     40 H40        -8.3420    3.2058   61.8828 H       1  ZINC000971513996    0.0800
     41 H41        -9.8947    2.9722   59.3648 H       1  ZINC000971513996    0.0900
     42 H42       -10.1016    2.0581   60.8793 H       1  ZINC000971513996    0.0700
     43 H43       -12.2702    3.6672   59.4487 H       1  ZINC000971513996    0.0800
     44 H44       -12.1423    1.8895   59.4915 H       1  ZINC000971513996    0.1000
     45 H45       -15.0919    1.5191   59.2824 H       1  ZINC000971513996    0.1500
     46 H46       -15.6574   -0.5059   57.2074 H       1  ZINC000971513996    0.1200
     47 H47       -14.6629   -2.6954   55.2649 H       1  ZINC000971513996    0.0700
     48 H48       -15.3557   -4.0132   56.2406 H       1  ZINC000971513996    0.0600
     49 H49       -16.2670   -2.5015   56.0114 H       1  ZINC000971513996    0.0600
     50 H50       -13.4760   -4.1169   57.7590 H       1  ZINC000971513996    0.1300
     51 H51       -12.4084   -3.2114   59.7738 H       1  ZINC000971513996    0.1200
     52 H52       -12.3529   -0.8310   61.3811 H       1  ZINC000971513996    0.4200
     53 H53       -13.0982    4.7105   61.9871 H       1  ZINC000971513996    0.0800
     54 H54       -12.7695    3.5291   63.2649 H       1  ZINC000971513996    0.1200
@<TRIPOS>BOND
     1     1     2    1
     2     1    31    1
     3     1    32    1
     4     1    33    1
     5     2     3    1
     6     2    34    1
     7     2    35    1
     8     3     4    1
     9     3     5    1
    10     3     7    1
    11     5     6    1
    12     6    36    1
    13     6    37    1
    14     6    38    1
    15     7     8    2
    16     7     9   am
    17     9    29    1
    18     9    10    1
    19    10    11    1
    20    10    39    1
    21    10    40    1
    22    11    12    1
    23    11    29    1
    24    11    13    1
    25    13    14    1
    26    13    41    1
    27    13    42    1
    28    14    15    1
    29    14    43    1
    30    14    44    1
    31    15    16   am
    32    15    28    1
    33    16    17    2
    34    16    18    1
    35    18    27    1
    36    18    19    2
    37    19    20    1
    38    19    45    1
    39    20    26   ar
    40    20    21   ar
    41    21    22   ar
    42    21    46    1
    43    22    23    1
    44    22    24   ar
    45    23    47    1
    46    23    48    1
    47    23    49    1
    48    24    25   ar
    49    24    50    1
    50    25    26   ar
    51    25    51    1
    52    26    27    1
    53    27    52    1
    54    28    29    1
    55    28    53    1
    56    28    54    1
    57    29    30    1
@<TRIPOS>SUBSTRUCTURE
     1 ZINC000971513996        1 TEMP              0 ****  ****    0 ROOT


##########                                Name:    ZINC000845755710
##########                DOCK_Rotatable_Bonds:                   3
##########                         Heavy_Atoms:                  24
##########                    Molecular_Weight:             349.814
##########                DOCK_Rotatable_Bonds:                   3
##########                       Formal_Charge:         -0.00999974
##########                     HBond_Acceptors:                   6
##########                        HBond_Donors:                   0
##########                         Heavy_Atoms:                  24
##########                          Grid_Score:          -23.587364
##########                     Grid_vdw_energy:          -22.738010
##########                      Grid_es_energy:           -0.849354
##########           Internal_energy_repulsive:           14.260065

@<TRIPOS>MOLECULE
ZINC000845755710
 44 47 1 0 0
SMALL
USER_CHARGES


@<TRIPOS>ATOM
      1 C1        -12.1839   -0.9451   58.4923 C.3     1  ZINC000845755710   -0.1700
      2 C2        -11.2141   -0.6440   59.6368 C.3     1  ZINC000845755710    0.2600
      3 C3        -11.5612    0.7085   60.2622 C.3     1  ZINC000845755710   -0.0900
      4 C4        -12.8099    0.5613   61.1348 C.3     1  ZINC000845755710   -0.1300
      5 C5        -13.1744    1.9242   61.7315 C.3     1  ZINC000845755710    0.1100
      6 N6        -12.0033    2.4592   62.4394 N.am    1  ZINC000845755710   -0.6000
      7 C7        -12.0980    2.8509   63.7254 C.2     1  ZINC000845755710    0.5900
      8 O8        -13.1606    2.7632   64.3113 O.2     1  ZINC000845755710   -0.5200
      9 C9        -10.9168    3.3844   64.4206 C.2     1  ZINC000845755710   -0.2200
     10 C10       -10.6496    4.6880   64.7041 C.2     1  ZINC000845755710    0.0600
     11 O11        -9.4801    4.7829   65.3471 O.3     1  ZINC000845755710   -0.1800
     12 C12        -8.9164    3.5696   65.5229 C.ar    1  ZINC000845755710    0.0500
     13 C13        -7.7333    3.1499   66.1179 C.ar    1  ZINC000845755710   -0.0900
     14 C14        -7.4144    1.8088   66.1471 C.ar    1  ZINC000845755710   -0.0800
     15 C15        -8.2652    0.8674   65.5859 C.ar    1  ZINC000845755710   -0.0400
     16 Cl16       -7.8448   -0.8163   65.6328 Cl      1  ZINC000845755710   -0.0600
     17 C17        -9.4448    1.2658   64.9911 C.ar    1  ZINC000845755710   -0.0500
     18 C18        -9.7779    2.6157   64.9615 C.ar    1  ZINC000845755710   -0.0900
     19 C19       -10.7269    2.5584   61.7187 C.3     1  ZINC000845755710    0.1000
     20 C20       -10.3897    1.1883   61.1221 C.3     1  ZINC000845755710   -0.1300
     21 O21       -11.3108   -1.6737   60.6353 O.3     1  ZINC000845755710   -0.3700
     22 C22       -10.2465   -2.6014   60.3146 C.3     1  ZINC000845755710    0.0100
     23 C23        -9.1335   -1.6445   59.8193 C.3     1  ZINC000845755710    0.0200
     24 O24        -9.8716   -0.6123   59.1348 O.3     1  ZINC000845755710   -0.3800
     25 H25       -11.9310   -1.9064   58.0452 H       1  ZINC000845755710    0.0600
     26 H26       -13.2024   -0.9810   58.8792 H       1  ZINC000845755710    0.0800
     27 H27       -12.1093   -0.1623   57.7375 H       1  ZINC000845755710    0.0800
     28 H28       -11.7537    1.4349   59.4727 H       1  ZINC000845755710    0.0900
     29 H29       -13.6379    0.1971   60.5265 H       1  ZINC000845755710    0.0800
     30 H30       -12.6101   -0.1465   61.9393 H       1  ZINC000845755710    0.0800
     31 H31       -13.4622    2.6077   60.9327 H       1  ZINC000845755710    0.0700
     32 H32       -14.0022    1.8072   62.4310 H       1  ZINC000845755710    0.1000
     33 H33       -11.2864    5.5218   64.4480 H       1  ZINC000845755710    0.2200
     34 H34        -7.0631    3.8740   66.5573 H       1  ZINC000845755710    0.1500
     35 H35        -6.4934    1.4881   66.6109 H       1  ZINC000845755710    0.1500
     36 H36       -10.1072    0.5333   64.5541 H       1  ZINC000845755710    0.1400
     37 H37       -10.8149    3.2935   60.9188 H       1  ZINC000845755710    0.0800
     38 H38        -9.9395    2.8598   62.4097 H       1  ZINC000845755710    0.0900
     39 H39       -10.2127    0.4746   61.9268 H       1  ZINC000845755710    0.0700
     40 H40        -9.4951    1.2704   60.5048 H       1  ZINC000845755710    0.0800
     41 H41        -9.9252   -3.1481   61.2012 H       1  ZINC000845755710    0.1100
     42 H42       -10.5516   -3.2874   59.5244 H       1  ZINC000845755710    0.0800
     43 H43        -8.5802   -1.2286   60.6614 H       1  ZINC000845755710    0.0800
     44 H44        -8.4617   -2.1583   59.1317 H       1  ZINC000845755710    0.1000
@<TRIPOS>BOND
     1     1     2    1
     2     1    25    1
     3     1    26    1
     4     1    27    1
     5     2    24    1
     6     2     3    1
     7     2    21    1
     8     3    20    1
     9     3     4    1
    10     3    28    1
    11     4     5    1
    12     4    29    1
    13     4    30    1
    14     5     6    1
    15     5    31    1
    16     5    32    1
    17     6     7   am
    18     6    19    1
    19     7     8    2
    20     7     9    1
    21     9    18    1
    22     9    10    2
    23    10    11    1
    24    10    33    1
    25    11    12    1
    26    12    18   ar
    27    12    13   ar
    28    13    14   ar
    29    13    34    1
    30    14    15   ar
    31    14    35    1
    32    15    16    1
    33    15    17   ar
    34    17    18   ar
    35    17    36    1
    36    19    20    1
    37    19    37    1
    38    19    38    1
    39    20    39    1
    40    20    40    1
    41    21    22    1
    42    22    23    1
    43    22    41    1
    44    22    42    1
    45    23    24    1
    46    23    43    1
    47    23    44    1
@<TRIPOS>SUBSTRUCTURE
     1 ZINC000845755710        1 TEMP              0 ****  ****    0 ROOT


##########                                Name:    ZINC000451019064
##########                DOCK_Rotatable_Bonds:                   8
##########                         Heavy_Atoms:                  23
##########                    Molecular_Weight:             346.534
##########                DOCK_Rotatable_Bonds:                   8
##########                       Formal_Charge:          -0.0200008
##########                     HBond_Acceptors:                   6
##########                        HBond_Donors:                   1
##########                         Heavy_Atoms:                  23
##########                          Grid_Score:          -23.550190
##########                     Grid_vdw_energy:          -21.324478
##########                      Grid_es_energy:           -2.225712
##########           Internal_energy_repulsive:            9.272479

@<TRIPOS>MOLECULE
ZINC000451019064
 57 58 1 0 0
SMALL
USER_CHARGES


@<TRIPOS>ATOM
      1 C1        -13.8910   -3.4016   57.8834 C.3     1  ZINC000451019064   -0.1500
      2 C2        -12.8709   -2.9325   58.9228 C.3     1  ZINC000451019064    0.0900
      3 H3        -13.0957   -3.3906   59.8860 H       1  ZINC000451019064    0.0700
      4 C4        -12.9380   -1.4085   59.0533 C.3     1  ZINC000451019064    0.0200
      5 N5        -11.9040   -0.9566   59.9955 N.3     1  ZINC000451019064   -0.5400
      6 C6        -11.9712    0.4975   60.1932 C.3     1  ZINC000451019064    0.0600
      7 C7        -12.8119    0.8052   61.4340 C.3     1  ZINC000451019064   -0.1300
      8 C8        -12.4018    2.1647   62.0036 C.3     1  ZINC000451019064    0.1100
      9 N9        -13.5245    2.7412   62.7474 N.am    1  ZINC000451019064   -1.1200
     10 S10       -13.3979    2.9848   64.3805 S.o2    1  ZINC000451019064    2.6100
     11 O11       -14.6133    3.6306   64.7339 O.2     1  ZINC000451019064   -0.9600
     12 O12       -13.0705    1.7039   64.9015 O.2     1  ZINC000451019064   -0.9500
     13 C13       -11.9967    4.1226   64.5612 C.3     1  ZINC000451019064   -0.6300
     14 C14       -10.7952    3.3658   65.1308 C.3     1  ZINC000451019064   -0.1100
     15 C15        -9.6149    4.3265   65.2878 C.3     1  ZINC000451019064   -0.0800
     16 C16        -8.4135    3.5697   65.8574 C.3     1  ZINC000451019064   -0.1200
     17 C17        -7.2331    4.5305   66.0143 C.3     1  ZINC000451019064   -0.1200
     18 C18        -6.8667    5.1154   64.6489 C.3     1  ZINC000451019064   -0.1200
     19 C19        -8.0681    5.8723   64.0792 C.3     1  ZINC000451019064   -0.1200
     20 C20        -9.2485    4.9115   63.9223 C.3     1  ZINC000451019064   -0.1200
     21 C21       -10.5679   -1.3649   59.5379 C.3     1  ZINC000451019064    0.0200
     22 C22       -10.5245   -2.8892   59.4025 C.3     1  ZINC000451019064    0.0900
     23 H23       -10.6804   -3.3461   60.3797 H       1  ZINC000451019064    0.0700
     24 C24        -9.1622   -3.3147   58.8510 C.3     1  ZINC000451019064   -0.1500
     25 O25       -11.5565   -3.3138   58.5079 O.3     1  ZINC000451019064   -0.3800
     26 H26       -13.8416   -4.4865   57.7898 H       1  ZINC000451019064    0.0700
     27 H27       -14.8923   -3.1094   58.1995 H       1  ZINC000451019064    0.0700
     28 H28       -13.6656   -2.9432   56.9205 H       1  ZINC000451019064    0.0600
     29 H29       -12.7669   -0.9519   58.0785 H       1  ZINC000451019064    0.0400
     30 H30       -13.9208   -1.1181   59.4246 H       1  ZINC000451019064    0.0900
     31 H31       -10.9645    0.8926   60.3293 H       1  ZINC000451019064    0.0400
     32 H32       -12.4290    0.9621   59.3199 H       1  ZINC000451019064    0.0800
     33 H33       -13.8669    0.8287   61.1614 H       1  ZINC000451019064    0.0800
     34 H34       -12.6477    0.0322   62.1849 H       1  ZINC000451019064    0.0800
     35 H35       -11.5505    2.0367   62.6721 H       1  ZINC000451019064    0.0800
     36 H36       -12.1257    2.8322   61.1873 H       1  ZINC000451019064    0.0700
     37 H37       -14.3421    2.9804   62.2834 H       1  ZINC000451019064    0.4200
     38 H38       -11.7368    4.5365   63.5868 H       1  ZINC000451019064    0.1300
     39 H39       -12.2707    4.9318   65.2382 H       1  ZINC000451019064    0.1400
     40 H40       -11.0563    2.9490   66.1036 H       1  ZINC000451019064    0.0800
     41 H41       -10.5191    2.5588   64.4521 H       1  ZINC000451019064    0.0800
     42 H42        -9.8910    5.1335   65.9665 H       1  ZINC000451019064    0.0800
     43 H43        -8.6745    3.1529   66.8302 H       1  ZINC000451019064    0.0600
     44 H44        -8.1374    2.7626   65.1787 H       1  ZINC000451019064    0.0700
     45 H45        -7.5093    5.3374   66.6930 H       1  ZINC000451019064    0.0600
     46 H46        -6.3772    3.9913   66.4202 H       1  ZINC000451019064    0.0600
     47 H47        -6.0258    5.7999   64.7607 H       1  ZINC000451019064    0.0600
     48 H48        -6.5906    4.3084   63.9702 H       1  ZINC000451019064    0.0600
     49 H49        -8.3443    6.6792   64.7579 H       1  ZINC000451019064    0.0600
     50 H50        -7.8071    6.2890   63.1065 H       1  ZINC000451019064    0.0600
     51 H51        -8.9724    4.1045   63.2436 H       1  ZINC000451019064    0.0700
     52 H52       -10.1044    5.4508   63.5164 H       1  ZINC000451019064    0.0600
     53 H53       -10.3589   -0.9076   58.5708 H       1  ZINC000451019064    0.0400
     54 H54        -9.8205   -1.0425   60.2628 H       1  ZINC000451019064    0.0900
     55 H55        -8.3765   -2.9882   59.5324 H       1  ZINC000451019064    0.0700
     56 H56        -9.1320   -4.4000   58.7549 H       1  ZINC000451019064    0.0700
     57 H57        -9.0076   -2.8588   57.8731 H       1  ZINC000451019064    0.0600
@<TRIPOS>BOND
     1     1     2    1
     2     1    26    1
     3     1    27    1
     4     1    28    1
     5     2     3    1
     6     2    25    1
     7     2     4    1
     8     4     5    1
     9     4    29    1
    10     4    30    1
    11     5     6    1
    12     5    21    1
    13     6     7    1
    14     6    31    1
    15     6    32    1
    16     7     8    1
    17     7    33    1
    18     7    34    1
    19     8     9    1
    20     8    35    1
    21     8    36    1
    22     9    10   am
    23     9    37    1
    24    10    11    2
    25    10    12    2
    26    10    13    1
    27    13    14    1
    28    13    38    1
    29    13    39    1
    30    14    15    1
    31    14    40    1
    32    14    41    1
    33    15    20    1
    34    15    16    1
    35    15    42    1
    36    16    17    1
    37    16    43    1
    38    16    44    1
    39    17    18    1
    40    17    45    1
    41    17    46    1
    42    18    19    1
    43    18    47    1
    44    18    48    1
    45    19    20    1
    46    19    49    1
    47    19    50    1
    48    20    51    1
    49    20    52    1
    50    21    22    1
    51    21    53    1
    52    21    54    1
    53    22    23    1
    54    22    24    1
    55    22    25    1
    56    24    55    1
    57    24    56    1
    58    24    57    1
@<TRIPOS>SUBSTRUCTURE
     1 ZINC000451019064        1 TEMP              0 ****  ****    0 ROOT


##########                                Name:    ZINC001018118384
##########                DOCK_Rotatable_Bonds:                   5
##########                         Heavy_Atoms:                  25
##########                    Molecular_Weight:             347.374
##########                DOCK_Rotatable_Bonds:                   5
##########                       Formal_Charge:           0.0299997
##########                     HBond_Acceptors:                   9
##########                        HBond_Donors:                   2
##########                         Heavy_Atoms:                  25
##########                          Grid_Score:          -23.512184
##########                     Grid_vdw_energy:          -19.546700
##########                      Grid_es_energy:           -3.965485
##########           Internal_energy_repulsive:           97.404388

@<TRIPOS>MOLECULE
ZINC001018118384
 46 48 1 0 0
SMALL
USER_CHARGES


@<TRIPOS>ATOM
      1 C1         -9.4824   -3.1231   58.8644 C.3     1  ZINC001018118384   -0.0700
      2 C2         -9.6846   -2.0612   59.9145 C.2     1  ZINC001018118384    0.2200
      3 N3        -10.7568   -1.3378   60.0613 N.2     1  ZINC001018118384   -0.4600
      4 C4        -10.5754   -0.4912   61.1070 C.2     1  ZINC001018118384   -0.0700
      5 C5        -11.5477    0.4962   61.6069 C.2     1  ZINC001018118384    0.6100
      6 O6        -12.5404    0.1242   62.2030 O.2     1  ZINC001018118384   -0.5400
      7 N7        -11.3371    1.8118   61.4036 N.am    1  ZINC001018118384   -0.5900
      8 C8        -10.1457    2.2763   60.6800 C.3     1  ZINC001018118384    0.0700
      9 C9        -10.5905    3.1857   59.5303 C.3     1  ZINC001018118384    0.1300
     10 H10        -9.7134    3.6137   59.0449 H       1  ZINC001018118384    0.1100
     11 N11       -11.3557    2.4037   58.5562 N.am    1  ZINC001018118384   -0.7000
     12 C12       -11.4913    2.8493   57.2915 C.2     1  ZINC001018118384    0.6000
     13 O13       -10.9801    3.9003   56.9596 O.2     1  ZINC001018118384   -0.4900
     14 C14       -12.2640    2.0572   56.3055 C.2     1  ZINC001018118384    0.0300
     15 C15       -12.4385    2.3557   54.9869 C.2     1  ZINC001018118384   -0.2300
     16 C16       -13.2459    1.2910   54.4966 C.2     1  ZINC001018118384    0.4800
     17 O17       -13.6540    1.1406   53.3569 O.2     1  ZINC001018118384   -0.5200
     18 N18       -13.4653    0.4828   55.5532 N.am    1  ZINC001018118384   -0.4500
     19 C19       -14.2556   -0.7499   55.5070 C.3     1  ZINC001018118384    0.1100
     20 O20       -12.9171    0.9096   56.5430 O.3     1  ZINC001018118384    0.0000
     21 C21       -11.4672    4.3108   60.0850 C.3     1  ZINC001018118384   -0.1300
     22 C22       -12.7152    3.7124   60.7381 C.3     1  ZINC001018118384   -0.1300
     23 C23       -12.2977    2.8086   61.8961 C.3     1  ZINC001018118384    0.1400
     24 H24       -11.8266    3.4075   62.6756 H       1  ZINC001018118384    0.0700
     25 C25       -13.5298    2.1028   62.4660 C.3     1  ZINC001018118384   -0.1400
     26 C26        -9.3287   -0.7218   61.6109 C.2     1  ZINC001018118384    0.0400
     27 N27        -8.7795   -1.7087   60.8643 N.pl3   1  ZINC001018118384   -0.5600
     28 H28        -9.8272   -4.0834   59.2477 H       1  ZINC001018118384    0.0900
     29 H29       -10.0504   -2.8634   57.9711 H       1  ZINC001018118384    0.1000
     30 H30        -8.4235   -3.1904   58.6151 H       1  ZINC001018118384    0.0800
     31 H31        -9.5004    2.8341   61.3586 H       1  ZINC001018118384    0.0800
     32 H32        -9.6043    1.4191   60.2795 H       1  ZINC001018118384    0.1500
     33 H33       -11.7649    1.5651   58.8214 H       1  ZINC001018118384    0.4100
     34 H34       -12.0536    3.2042   54.4408 H       1  ZINC001018118384    0.1900
     35 H35       -13.6049   -1.5896   55.2628 H       1  ZINC001018118384    0.0800
     36 H36       -14.7199   -0.9205   56.4782 H       1  ZINC001018118384    0.0900
     37 H37       -15.0298   -0.6567   54.7454 H       1  ZINC001018118384    0.1100
     38 H38       -10.9048    4.8769   60.8275 H       1  ZINC001018118384    0.0900
     39 H39       -11.7648    4.9735   59.2724 H       1  ZINC001018118384    0.0800
     40 H40       -13.3505    4.5153   61.1122 H       1  ZINC001018118384    0.0800
     41 H41       -13.2651    3.1258   60.0022 H       1  ZINC001018118384    0.0600
     42 H42       -14.0078    1.5164   61.6813 H       1  ZINC001018118384    0.0700
     43 H43       -13.2270    1.4431   63.2792 H       1  ZINC001018118384    0.0800
     44 H44       -14.2322    2.8459   62.8433 H       1  ZINC001018118384    0.0400
     45 H45        -8.8696   -0.2170   62.4480 H       1  ZINC001018118384    0.1900
     46 H46        -7.8959   -2.0907   60.9823 H       1  ZINC001018118384    0.4300
@<TRIPOS>BOND
     1     1     2    1
     2     1    28    1
     3     1    29    1
     4     1    30    1
     5     2    27    1
     6     2     3    2
     7     3     4    1
     8     4     5    1
     9     4    26    2
    10     5     6    2
    11     5     7   am
    12     7    23    1
    13     7     8    1
    14     8     9    1
    15     8    31    1
    16     8    32    1
    17     9    10    1
    18     9    11    1
    19     9    21    1
    20    11    12   am
    21    11    33    1
    22    12    13    2
    23    12    14    1
    24    14    20    1
    25    14    15    2
    26    15    16    1
    27    15    34    1
    28    16    17    2
    29    16    18   am
    30    18    19    1
    31    18    20    1
    32    19    35    1
    33    19    36    1
    34    19    37    1
    35    21    22    1
    36    21    38    1
    37    21    39    1
    38    22    23    1
    39    22    40    1
    40    22    41    1
    41    23    24    1
    42    23    25    1
    43    25    42    1
    44    25    43    1
    45    25    44    1
    46    26    27    1
    47    26    45    1
    48    27    46    1
@<TRIPOS>SUBSTRUCTURE
     1 ZINC001018118384        1 TEMP              0 ****  ****    0 ROOT


##########                                Name:    ZINC000893400114
##########                DOCK_Rotatable_Bonds:                   6
##########                         Heavy_Atoms:                  27
##########                    Molecular_Weight:             381.472
##########                DOCK_Rotatable_Bonds:                   6
##########                       Formal_Charge:           0.0300001
##########                     HBond_Acceptors:                   8
##########                        HBond_Donors:                   1
##########                         Heavy_Atoms:                  27
##########                          Grid_Score:          -23.496719
##########                     Grid_vdw_energy:          -22.808222
##########                      Grid_es_energy:           -0.688498
##########           Internal_energy_repulsive:          103.646538

@<TRIPOS>MOLECULE
ZINC000893400114
 58 61 1 0 0
SMALL
USER_CHARGES


@<TRIPOS>ATOM
      1 O1        -13.3471    0.5615   59.7083 O.2     1  ZINC000893400114   -0.5600
      2 C2        -12.9227   -0.5224   59.3570 C.2     1  ZINC000893400114    0.7100
      3 N3        -13.5441   -1.2028   58.3734 N.am    1  ZINC000893400114   -0.7300
      4 C4        -14.7344   -0.6391   57.7317 C.3     1  ZINC000893400114    0.1400
      5 H5        -15.3472   -0.1118   58.4628 H       1  ZINC000893400114    0.1200
      6 C6        -15.5549   -1.7524   57.0401 C.3     1  ZINC000893400114   -0.1400
      7 C7        -15.0053   -1.6986   55.5973 C.3     1  ZINC000893400114    0.1000
      8 N8        -14.5055   -0.3302   55.4196 N.am    1  ZINC000893400114   -0.6200
      9 C9        -14.2247    0.2849   54.1199 C.3     1  ZINC000893400114    0.1600
     10 C10       -13.3194    1.5049   54.3153 C.3     1  ZINC000893400114   -0.1700
     11 C11       -12.9675    2.0940   52.9467 C.3     1  ZINC000893400114    0.0700
     12 O12       -12.3354    1.0925   52.1469 O.3     1  ZINC000893400114   -0.3800
     13 C13       -13.1524   -0.0517   51.8913 C.3     1  ZINC000893400114    0.0700
     14 C14       -13.5118   -0.7269   53.2175 C.3     1  ZINC000893400114   -0.1700
     15 C15       -14.3388    0.2891   56.6045 C.2     1  ZINC000893400114    0.5100
     16 O16       -13.9312    1.4228   56.7446 O.2     1  ZINC000893400114   -0.4900
     17 N17       -11.8277   -1.0410   59.9473 N.am    1  ZINC000893400114   -0.6300
     18 C18       -11.2922   -2.3482   59.5351 C.3     1  ZINC000893400114    0.0800
     19 C19        -9.7913   -2.1924   59.2651 C.3     1  ZINC000893400114    0.0500
     20 O20        -9.1702   -1.5806   60.3980 O.3     1  ZINC000893400114   -0.3800
     21 C21        -9.6389   -0.2598   60.6803 C.3     1  ZINC000893400114    0.0600
     22 C22       -11.1288   -0.3140   61.0189 C.3     1  ZINC000893400114    0.1400
     23 H23       -11.2716   -0.8379   61.9640 H       1  ZINC000893400114    0.0800
     24 C24       -11.6843    1.1074   61.1286 C.3     1  ZINC000893400114   -0.1200
     25 C25       -10.8338    1.9129   62.1128 C.3     1  ZINC000893400114    0.0700
     26 H26        -9.7847    1.8641   61.8208 H       1  ZINC000893400114    0.0800
     27 C27       -11.0071    1.3482   63.5391 C.3     1  ZINC000893400114   -0.1500
     28 C28       -11.0356    2.6384   64.4032 C.3     1  ZINC000893400114   -0.1600
     29 C29       -11.7495    3.6211   63.4410 C.3     1  ZINC000893400114    0.0500
     30 O30       -11.2706    3.2769   62.1291 O.3     1  ZINC000893400114   -0.3800
     31 H31       -13.2032   -2.0657   58.0904 H       1  ZINC000893400114    0.4000
     32 H32       -15.3582   -2.7226   57.4964 H       1  ZINC000893400114    0.1000
     33 H33       -16.6200   -1.5220   57.0606 H       1  ZINC000893400114    0.1000
     34 H34       -14.1932   -2.4154   55.4761 H       1  ZINC000893400114    0.0700
     35 H35       -15.8017   -1.9053   54.8824 H       1  ZINC000893400114    0.0800
     36 H36       -15.1599    0.5941   53.6531 H       1  ZINC000893400114    0.0900
     37 H37       -13.8412    2.2540   54.9109 H       1  ZINC000893400114    0.0800
     38 H38       -12.4061    1.2025   54.8274 H       1  ZINC000893400114    0.0900
     39 H39       -13.8776    2.4332   52.4521 H       1  ZINC000893400114    0.0500
     40 H40       -12.2888    2.9368   53.0773 H       1  ZINC000893400114    0.1000
     41 H41       -14.0649    0.2595   51.3829 H       1  ZINC000893400114    0.0500
     42 H42       -12.6069   -0.7546   51.2617 H       1  ZINC000893400114    0.1000
     43 H43       -12.6022   -1.0744   53.7075 H       1  ZINC000893400114    0.0900
     44 H44       -14.1710   -1.5740   53.0281 H       1  ZINC000893400114    0.0700
     45 H45       -11.4485   -3.0764   60.3310 H       1  ZINC000893400114    0.0800
     46 H46       -11.7958   -2.6816   58.6278 H       1  ZINC000893400114    0.0800
     47 H47        -9.3487   -3.1735   59.0929 H       1  ZINC000893400114    0.1100
     48 H48        -9.6427   -1.5657   58.3858 H       1  ZINC000893400114    0.0500
     49 H49        -9.0867    0.1495   61.5262 H       1  ZINC000893400114    0.1300
     50 H50        -9.4898    0.3740   59.8061 H       1  ZINC000893400114    0.0500
     51 H51       -11.6568    1.5848   60.1491 H       1  ZINC000893400114    0.0800
     52 H52       -12.7137    1.0687   61.4850 H       1  ZINC000893400114    0.1100
     53 H53       -11.9456    0.8009   63.6281 H       1  ZINC000893400114    0.0800
     54 H54       -10.1613    0.7172   63.8120 H       1  ZINC000893400114    0.0800
     55 H55       -11.6160    2.4888   65.3135 H       1  ZINC000893400114    0.0800
     56 H56       -10.0262    2.9787   64.6344 H       1  ZINC000893400114    0.0800
     57 H57       -12.8299    3.4877   63.4972 H       1  ZINC000893400114    0.0600
     58 H58       -11.4814    4.6494   63.6830 H       1  ZINC000893400114    0.0800
@<TRIPOS>BOND
     1     1     2    2
     2     2     3   am
     3     2    17   am
     4     3     4    1
     5     3    31    1
     6     4     5    1
     7     4    15    1
     8     4     6    1
     9     6     7    1
    10     6    32    1
    11     6    33    1
    12     7     8    1
    13     7    34    1
    14     7    35    1
    15     8     9    1
    16     8    15   am
    17     9    14    1
    18     9    10    1
    19     9    36    1
    20    10    11    1
    21    10    37    1
    22    10    38    1
    23    11    12    1
    24    11    39    1
    25    11    40    1
    26    12    13    1
    27    13    14    1
    28    13    41    1
    29    13    42    1
    30    14    43    1
    31    14    44    1
    32    15    16    2
    33    17    22    1
    34    17    18    1
    35    18    19    1
    36    18    45    1
    37    18    46    1
    38    19    20    1
    39    19    47    1
    40    19    48    1
    41    20    21    1
    42    21    22    1
    43    21    49    1
    44    21    50    1
    45    22    23    1
    46    22    24    1
    47    24    25    1
    48    24    51    1
    49    24    52    1
    50    25    26    1
    51    25    30    1
    52    25    27    1
    53    27    28    1
    54    27    53    1
    55    27    54    1
    56    28    29    1
    57    28    55    1
    58    28    56    1
    59    29    30    1
    60    29    57    1
    61    29    58    1
@<TRIPOS>SUBSTRUCTURE
     1 ZINC000893400114        1 TEMP              0 ****  ****    0 ROOT


##########                                Name:    ZINC000451500596
##########                DOCK_Rotatable_Bonds:                   7
##########                         Heavy_Atoms:                  25
##########                    Molecular_Weight:             365.497
##########                DOCK_Rotatable_Bonds:                   7
##########                       Formal_Charge:           0.0400004
##########                     HBond_Acceptors:                   7
##########                        HBond_Donors:                   2
##########                         Heavy_Atoms:                  25
##########                          Grid_Score:          -23.492701
##########                     Grid_vdw_energy:          -20.623583
##########                      Grid_es_energy:           -2.869118
##########           Internal_energy_repulsive:           11.181383

@<TRIPOS>MOLECULE
ZINC000451500596
 52 54 1 0 0
SMALL
USER_CHARGES


@<TRIPOS>ATOM
      1 C1        -12.3181    2.7122   64.9729 C.3     1  ZINC000451500596   -0.6700
      2 S2        -13.5519    4.0104   65.2614 S.o2    1  ZINC000451500596    2.6100
      3 O3        -14.8420    3.4416   65.4382 O.2     1  ZINC000451500596   -0.9500
      4 O4        -13.0495    4.9832   66.1672 O.2     1  ZINC000451500596   -0.9600
      5 N5        -13.6536    4.8122   63.8161 N.am    1  ZINC000451500596   -1.1200
      6 C6        -14.0592    4.0926   62.6062 C.3     1  ZINC000451500596    0.1200
      7 C7        -12.8304    3.8288   61.7336 C.3     1  ZINC000451500596   -0.1000
      8 H8        -12.1257    3.1893   62.2651 H       1  ZINC000451500596    0.0900
      9 C9        -12.1531    5.1629   61.3575 C.3     1  ZINC000451500596   -0.1200
     10 C10       -11.6703    4.9466   59.9017 C.3     1  ZINC000451500596   -0.1300
     11 C11       -12.8208    4.1165   59.2798 C.3     1  ZINC000451500596   -0.1300
     12 C12       -13.2547    3.1624   60.4132 C.3     1  ZINC000451500596    0.1400
     13 H13       -14.3362    3.0273   60.3939 H       1  ZINC000451500596    0.1000
     14 N14       -12.5848    1.8682   60.2636 N.am    1  ZINC000451500596   -0.7200
     15 C15       -13.1512    0.7540   60.7678 C.2     1  ZINC000451500596    0.5300
     16 O16       -14.2148    0.8230   61.3466 O.2     1  ZINC000451500596   -0.5300
     17 C17       -12.4630   -0.5777   60.6124 C.3     1  ZINC000451500596   -0.1300
     18 H18       -11.7875   -0.7607   61.4481 H       1  ZINC000451500596    0.1000
     19 C19       -13.5036   -1.7216   60.4877 C.3     1  ZINC000451500596   -0.1200
     20 C20       -12.7054   -2.7856   59.6938 C.3     1  ZINC000451500596    0.0500
     21 N21       -11.8924   -2.0090   58.7338 N.3     1  ZINC000451500596   -0.4900
     22 C22       -10.6618   -2.6284   58.5038 C.ar    1  ZINC000451500596    0.0800
     23 C23        -9.6936   -2.6445   59.4998 C.ar    1  ZINC000451500596   -0.0900
     24 C24        -8.4781   -3.2582   59.2692 C.ar    1  ZINC000451500596   -0.1100
     25 C25        -8.2241   -3.8560   58.0483 C.ar    1  ZINC000451500596   -0.1200
     26 C26        -9.1857   -3.8417   57.0546 C.ar    1  ZINC000451500596   -0.1100
     27 C27       -10.4055   -3.2347   57.2805 C.ar    1  ZINC000451500596   -0.1500
     28 C28       -11.7028   -0.6460   59.2712 C.3     1  ZINC000451500596    0.0600
     29 H29       -12.6584    2.0598   64.1687 H       1  ZINC000451500596    0.1300
     30 H30       -11.3687    3.1689   64.6932 H       1  ZINC000451500596    0.1300
     31 H31       -12.1858    2.1278   65.8834 H       1  ZINC000451500596    0.1300
     32 H32       -13.4446    5.7584   63.7706 H       1  ZINC000451500596    0.4200
     33 H33       -14.5178    3.1437   62.8842 H       1  ZINC000451500596    0.0700
     34 H34       -14.7778    4.6941   62.0494 H       1  ZINC000451500596    0.0900
     35 H35       -12.8713    5.9816   61.4035 H       1  ZINC000451500596    0.0800
     36 H36       -11.3063    5.3595   62.0149 H       1  ZINC000451500596    0.0700
     37 H37       -11.5596    5.9003   59.3858 H       1  ZINC000451500596    0.0700
     38 H38       -10.7359    4.3857   59.8840 H       1  ZINC000451500596    0.0700
     39 H39       -13.6467    4.7663   58.9904 H       1  ZINC000451500596    0.0800
     40 H40       -12.4611    3.5496   58.4212 H       1  ZINC000451500596    0.0700
     41 H41       -11.7336    1.8131   59.8017 H       1  ZINC000451500596    0.4000
     42 H42       -13.7882   -2.0994   61.4698 H       1  ZINC000451500596    0.0800
     43 H43       -14.3797   -1.3931   59.9285 H       1  ZINC000451500596    0.0800
     44 H44       -12.0609   -3.3545   60.3639 H       1  ZINC000451500596    0.0600
     45 H45       -13.3853   -3.4522   59.1632 H       1  ZINC000451500596    0.0900
     46 H46        -9.8911   -2.1773   60.4534 H       1  ZINC000451500596    0.1300
     47 H47        -7.7250   -3.2711   60.0432 H       1  ZINC000451500596    0.1300
     48 H48        -7.2725   -4.3345   57.8704 H       1  ZINC000451500596    0.1200
     49 H49        -8.9841   -4.3094   56.1023 H       1  ZINC000451500596    0.1200
     50 H50       -11.1562   -3.2242   56.5042 H       1  ZINC000451500596    0.1200
     51 H51       -12.1139    0.0869   58.5769 H       1  ZINC000451500596    0.1000
     52 H52       -10.6417   -0.4545   59.4307 H       1  ZINC000451500596    0.0700
@<TRIPOS>BOND
     1     1     2    1
     2     1    29    1
     3     1    30    1
     4     1    31    1
     5     2     3    2
     6     2     4    2
     7     2     5   am
     8     5     6    1
     9     5    32    1
    10     6     7    1
    11     6    33    1
    12     6    34    1
    13     7     8    1
    14     7    12    1
    15     7     9    1
    16     9    10    1
    17     9    35    1
    18     9    36    1
    19    10    11    1
    20    10    37    1
    21    10    38    1
    22    11    12    1
    23    11    39    1
    24    11    40    1
    25    12    13    1
    26    12    14    1
    27    14    15   am
    28    14    41    1
    29    15    16    2
    30    15    17    1
    31    17    18    1
    32    17    28    1
    33    17    19    1
    34    19    20    1
    35    19    42    1
    36    19    43    1
    37    20    21    1
    38    20    44    1
    39    20    45    1
    40    21    22    1
    41    21    28    1
    42    22    27   ar
    43    22    23   ar
    44    23    24   ar
    45    23    46    1
    46    24    25   ar
    47    24    47    1
    48    25    26   ar
    49    25    48    1
    50    26    27   ar
    51    26    49    1
    52    27    50    1
    53    28    51    1
    54    28    52    1
@<TRIPOS>SUBSTRUCTURE
     1 ZINC000451500596        1 TEMP              0 ****  ****    0 ROOT


##########                                Name:    ZINC000471198073
##########                DOCK_Rotatable_Bonds:                  12
##########                         Heavy_Atoms:                  30
##########                    Molecular_Weight:             409.528
##########                DOCK_Rotatable_Bonds:                  12
##########                       Formal_Charge:          -0.0399998
##########                     HBond_Acceptors:                   6
##########                        HBond_Donors:                   3
##########                         Heavy_Atoms:                  30
##########                          Grid_Score:          -23.335701
##########                     Grid_vdw_energy:          -21.178789
##########                      Grid_es_energy:           -2.156911
##########           Internal_energy_repulsive:           42.578178

@<TRIPOS>MOLECULE
ZINC000471198073
 61 62 1 0 0
SMALL
USER_CHARGES


@<TRIPOS>ATOM
      1 C1         -0.9210    3.3051   59.8690 C.3     1  ZINC000471198073   -0.1400
      2 C2         -0.9773    3.9255   58.4716 C.3     1  ZINC000471198073   -0.1100
      3 C3         -0.6641    2.8544   57.4250 C.3     1  ZINC000471198073   -0.1500
      4 C4         -2.3559    4.4816   58.2241 C.2     1  ZINC000471198073    0.5200
      5 O5         -2.5206    5.6805   58.1425 O.2     1  ZINC000471198073   -0.5200
      6 N6         -3.4059    3.6468   58.0933 N.am    1  ZINC000471198073   -0.6700
      7 C7         -4.6859    4.1632   57.8634 C.ar    1  ZINC000471198073    0.1600
      8 C8         -5.1722    4.2645   56.5662 C.ar    1  ZINC000471198073   -0.1500
      9 C9         -6.4363    4.7740   56.3381 C.ar    1  ZINC000471198073   -0.0800
     10 C10        -7.2207    5.1840   57.3985 C.ar    1  ZINC000471198073   -0.1300
     11 C11        -6.7399    5.0858   58.6991 C.ar    1  ZINC000471198073    0.1500
     12 N12        -7.5335    5.5012   59.7714 N.am    1  ZINC000471198073   -0.6400
     13 C13        -8.2876    4.6051   60.4385 C.2     1  ZINC000471198073    0.5100
     14 O14        -8.2772    3.4374   60.1079 O.2     1  ZINC000471198073   -0.5000
     15 C15        -9.1359    5.0492   61.5848 C.2     1  ZINC000471198073    0.5100
     16 O16        -9.3423    6.2315   61.7647 O.2     1  ZINC000471198073   -0.5100
     17 N17        -9.6721    4.1368   62.4194 N.am    1  ZINC000471198073   -0.7000
     18 C18       -10.5028    4.5724   63.5447 C.3     1  ZINC000471198073    0.1200
     19 C19       -10.2985    3.6230   64.7270 C.3     1  ZINC000471198073   -0.0900
     20 H20       -10.5394    4.1414   65.6551 H       1  ZINC000471198073    0.0800
     21 C21       -11.2143    2.4075   64.5692 C.3     1  ZINC000471198073   -0.0800
     22 C22       -10.8787    1.6887   63.2879 C.ar    1  ZINC000471198073   -0.0800
     23 C23        -9.9185    0.6943   63.2843 C.ar    1  ZINC000471198073   -0.1200
     24 C24        -9.6107    0.0350   62.1090 C.ar    1  ZINC000471198073   -0.1200
     25 C25       -10.2633    0.3698   60.9373 C.ar    1  ZINC000471198073   -0.1200
     26 C26       -11.2242    1.3636   60.9411 C.ar    1  ZINC000471198073   -0.1200
     27 C27       -11.5351    2.0199   62.1173 C.ar    1  ZINC000471198073   -0.1200
     28 C28        -8.8403    3.1615   64.7644 C.3     1  ZINC000471198073   -0.1000
     29 C29        -7.9212    4.3818   64.8466 C.3     1  ZINC000471198073   -0.1600
     30 C30        -8.6180    2.2721   65.9894 C.3     1  ZINC000471198073   -0.1700
     31 C31        -5.4729    4.5693   58.9316 C.ar    1  ZINC000471198073   -0.1400
     32 H32         0.0761    2.9029   60.0480 H       1  ZINC000471198073    0.0700
     33 H33        -1.1441    4.0683   60.6147 H       1  ZINC000471198073    0.0600
     34 H34        -1.6547    2.5023   59.9400 H       1  ZINC000471198073    0.0600
     35 H35        -0.2436    4.7283   58.4007 H       1  ZINC000471198073    0.1000
     36 H36        -1.3979    2.0514   57.4959 H       1  ZINC000471198073    0.0600
     37 H37        -0.7043    3.2963   56.4294 H       1  ZINC000471198073    0.0600
     38 H38         0.3331    2.4521   57.6041 H       1  ZINC000471198073    0.0700
     39 H39        -3.2742    2.6881   58.1586 H       1  ZINC000471198073    0.4100
     40 H40        -4.5613    3.9451   55.7348 H       1  ZINC000471198073    0.1300
     41 H41        -6.8118    4.8520   55.3285 H       1  ZINC000471198073    0.1300
     42 H42        -8.2082    5.5818   57.2170 H       1  ZINC000471198073    0.1400
     43 H43        -7.5419    6.4345   60.0357 H       1  ZINC000471198073    0.4200
     44 H44        -9.5080    3.1918   62.2748 H       1  ZINC000471198073    0.4200
     45 H45       -10.2176    5.5831   63.8369 H       1  ZINC000471198073    0.0700
     46 H46       -11.5514    4.5623   63.2476 H       1  ZINC000471198073    0.0800
     47 H47       -11.0706    1.7324   65.4129 H       1  ZINC000471198073    0.0800
     48 H48       -12.2530    2.7366   64.5400 H       1  ZINC000471198073    0.0800
     49 H49        -9.4086    0.4327   64.1997 H       1  ZINC000471198073    0.1200
     50 H50        -8.8599   -0.7414   62.1060 H       1  ZINC000471198073    0.1200
     51 H51       -10.0224   -0.1447   60.0189 H       1  ZINC000471198073    0.1200
     52 H52       -11.7340    1.6254   60.0257 H       1  ZINC000471198073    0.1200
     53 H53       -12.2858    2.7964   62.1203 H       1  ZINC000471198073    0.1200
     54 H54        -8.6145    2.5969   63.8597 H       1  ZINC000471198073    0.0800
     55 H55        -8.0780    4.8916   65.7972 H       1  ZINC000471198073    0.0600
     56 H56        -6.8823    4.0597   64.7742 H       1  ZINC000471198073    0.0600
     57 H57        -8.1481    5.0635   64.0270 H       1  ZINC000471198073    0.0600
     58 H58        -9.3583    1.4722   65.9967 H       1  ZINC000471198073    0.0600
     59 H59        -7.6177    1.8411   65.9487 H       1  ZINC000471198073    0.0600
     60 H60        -8.7196    2.8696   66.8953 H       1  ZINC000471198073    0.0700
     61 H61        -5.0970    4.4919   59.9411 H       1  ZINC000471198073    0.1400
@<TRIPOS>BOND
     1     1     2    1
     2     1    32    1
     3     1    33    1
     4     1    34    1
     5     2     3    1
     6     2     4    1
     7     2    35    1
     8     3    36    1
     9     3    37    1
    10     3    38    1
    11     4     5    2
    12     4     6   am
    13     6     7    1
    14     6    39    1
    15     7    31   ar
    16     7     8   ar
    17     8     9   ar
    18     8    40    1
    19     9    10   ar
    20     9    41    1
    21    10    11   ar
    22    10    42    1
    23    11    12    1
    24    11    31   ar
    25    12    13   am
    26    12    43    1
    27    13    14    2
    28    13    15    1
    29    15    16    2
    30    15    17   am
    31    17    18    1
    32    17    44    1
    33    18    19    1
    34    18    45    1
    35    18    46    1
    36    19    20    1
    37    19    21    1
    38    19    28    1
    39    21    22    1
    40    21    47    1
    41    21    48    1
    42    22    27   ar
    43    22    23   ar
    44    23    24   ar
    45    23    49    1
    46    24    25   ar
    47    24    50    1
    48    25    26   ar
    49    25    51    1
    50    26    27   ar
    51    26    52    1
    52    27    53    1
    53    28    29    1
    54    28    30    1
    55    28    54    1
    56    29    55    1
    57    29    56    1
    58    29    57    1
    59    30    58    1
    60    30    59    1
    61    30    60    1
    62    31    61    1
@<TRIPOS>SUBSTRUCTURE
     1 ZINC000471198073        1 TEMP              0 ****  ****    0 ROOT


##########                                Name:    ZINC000469459940
##########                DOCK_Rotatable_Bonds:                   7
##########                         Heavy_Atoms:                  24
##########                    Molecular_Weight:             414.295
##########                DOCK_Rotatable_Bonds:                   7
##########                       Formal_Charge:          -0.0200002
##########                     HBond_Acceptors:                   6
##########                        HBond_Donors:                   1
##########                         Heavy_Atoms:                  24
##########                          Grid_Score:          -23.324545
##########                     Grid_vdw_energy:          -22.146244
##########                      Grid_es_energy:           -1.178301
##########           Internal_energy_repulsive:            5.490083

@<TRIPOS>MOLECULE
ZINC000469459940
 41 42 1 0 0
SMALL
USER_CHARGES


@<TRIPOS>ATOM
      1 C1         -6.2027   -4.4311   56.4608 C.3     1  ZINC000469459940   -0.1600
      2 C2         -6.5222   -3.6775   57.7535 C.3     1  ZINC000469459940   -0.1200
      3 C3         -8.0323   -3.7017   57.9980 C.3     1  ZINC000469459940   -0.1200
      4 C4         -8.3800   -2.7407   59.1366 C.3     1  ZINC000469459940   -0.6000
      5 S5        -10.1754   -2.4871   59.1869 S.o2    1  ZINC000469459940    2.4900
      6 O6        -10.6482   -2.0183   57.9315 O.2     1  ZINC000469459940   -0.9300
      7 O7        -10.8134   -3.5684   59.8524 O.2     1  ZINC000469459940   -0.9300
      8 C8        -10.3958   -1.1174   60.2733 C.ar    1  ZINC000469459940   -0.6400
      9 C9        -11.6095   -0.4541   60.3077 C.ar    1  ZINC000469459940   -0.0300
     10 C10       -11.7887    0.6192   61.1557 C.ar    1  ZINC000469459940   -0.0800
     11 C11       -10.7421    1.0354   61.9803 C.ar    1  ZINC000469459940   -0.0900
     12 C12       -10.9270    2.1843   62.8918 C.2     1  ZINC000469459940    0.5600
     13 O13       -11.1481    3.2903   62.4383 O.2     1  ZINC000469459940   -0.5000
     14 N14       -10.8502    2.0057   64.2254 N.am    1  ZINC000469459940   -0.6700
     15 C15       -11.0252    3.0930   65.0879 C.ar    1  ZINC000469459940    0.1900
     16 C16       -12.3032    3.4765   65.4728 C.ar    1  ZINC000469459940   -0.1500
     17 C17       -12.4745    4.5506   66.3245 C.ar    1  ZINC000469459940   -0.0400
     18 C18       -11.3748    5.2451   66.7945 C.ar    1  ZINC000469459940   -0.1500
     19 Br19      -11.6138    6.7147   67.9603 Br      1  ZINC000469459940   -0.0200
     20 C20       -10.0976    4.8653   66.4126 C.ar    1  ZINC000469459940    0.1500
     21 F21        -9.0248    5.5453   66.8729 F       1  ZINC000469459940   -0.1200
     22 C22        -9.9209    3.7869   65.5649 C.ar    1  ZINC000469459940   -0.1500
     23 C23        -9.5203    0.3614   61.9410 C.ar    1  ZINC000469459940   -0.1100
     24 C24        -9.3562   -0.7136   61.0921 C.ar    1  ZINC000469459940   -0.0300
     25 H25        -6.5401   -5.4639   56.5494 H       1  ZINC000469459940    0.0600
     26 H26        -6.7138   -3.9524   55.6254 H       1  ZINC000469459940    0.0600
     27 H27        -5.1269   -4.4139   56.2865 H       1  ZINC000469459940    0.0600
     28 H28        -6.0111   -4.1562   58.5888 H       1  ZINC000469459940    0.0700
     29 H29        -6.1849   -2.6449   57.6647 H       1  ZINC000469459940    0.0700
     30 H30        -8.5523   -3.3935   57.0909 H       1  ZINC000469459940    0.0800
     31 H31        -8.3406   -4.7117   58.2681 H       1  ZINC000469459940    0.0800
     32 H32        -8.0462   -3.1640   60.0840 H       1  ZINC000469459940    0.1400
     33 H33        -7.8827   -1.7851   58.9703 H       1  ZINC000469459940    0.1400
     34 H34       -12.4185   -0.7771   59.6692 H       1  ZINC000469459940    0.1500
     35 H35       -12.7363    1.1366   61.1811 H       1  ZINC000469459940    0.1500
     36 H36       -10.6737    1.1232   64.5872 H       1  ZINC000469459940    0.4200
     37 H37       -13.1630    2.9356   65.1061 H       1  ZINC000469459940    0.1500
     38 H38       -13.4686    4.8485   66.6237 H       1  ZINC000469459940    0.1500
     39 H39        -8.9260    3.4905   65.2672 H       1  ZINC000469459940    0.1600
     40 H40        -8.7065    0.6786   62.5761 H       1  ZINC000469459940    0.1400
     41 H41        -8.4114   -1.2359   61.0606 H       1  ZINC000469459940    0.1500
@<TRIPOS>BOND
     1     1     2    1
     2     1    25    1
     3     1    26    1
     4     1    27    1
     5     2     3    1
     6     2    28    1
     7     2    29    1
     8     3     4    1
     9     3    30    1
    10     3    31    1
    11     4     5    1
    12     4    32    1
    13     4    33    1
    14     5     6    2
    15     5     7    2
    16     5     8    1
    17     8    24   ar
    18     8     9   ar
    19     9    10   ar
    20     9    34    1
    21    10    11   ar
    22    10    35    1
    23    11    12    1
    24    11    23   ar
    25    12    13    2
    26    12    14   am
    27    14    15    1
    28    14    36    1
    29    15    22   ar
    30    15    16   ar
    31    16    17   ar
    32    16    37    1
    33    17    18   ar
    34    17    38    1
    35    18    19    1
    36    18    20   ar
    37    20    21    1
    38    20    22   ar
    39    22    39    1
    40    23    24   ar
    41    23    40    1
    42    24    41    1
@<TRIPOS>SUBSTRUCTURE
     1 ZINC000469459940        1 TEMP              0 ****  ****    0 ROOT


##########                                Name:    ZINC001757264545
##########                DOCK_Rotatable_Bonds:                  11
##########                         Heavy_Atoms:                  25
##########                    Molecular_Weight:             344.497
##########                DOCK_Rotatable_Bonds:                  11
##########                       Formal_Charge:          0.00999946
##########                     HBond_Acceptors:                   4
##########                        HBond_Donors:                   2
##########                         Heavy_Atoms:                  25
##########                          Grid_Score:          -23.302931
##########                     Grid_vdw_energy:          -24.841278
##########                      Grid_es_energy:            1.538347
##########           Internal_energy_repulsive:           24.490406

@<TRIPOS>MOLECULE
ZINC001757264545
 57 57 1 0 0
SMALL
USER_CHARGES


@<TRIPOS>ATOM
      1 C1         -7.3881    5.5844   67.3826 C.1     1  ZINC001757264545   -0.2100
      2 C2         -6.9674    4.5193   67.1240 C.1     1  ZINC001757264545   -0.1900
      3 C3         -6.4399    3.1839   66.7998 C.3     1  ZINC001757264545   -0.0100
      4 C4         -7.6028    2.2336   66.5070 C.3     1  ZINC001757264545   -0.1200
      5 C5         -7.0545    0.8454   66.1707 C.3     1  ZINC001757264545   -0.1200
      6 C6         -8.2173   -0.1053   65.8793 C.3     1  ZINC001757264545   -0.1000
      7 C7         -8.4520   -0.1761   64.3690 C.3     1  ZINC001757264545   -0.1400
      8 C8         -9.2574    1.0192   63.9292 C.2     1  ZINC001757264545    0.5100
      9 O9         -8.7826    1.8161   63.1477 O.2     1  ZINC001757264545   -0.5400
     10 N10       -10.5053    1.2028   64.4041 N.am    1  ZINC001757264545   -0.7300
     11 C11       -11.2875    2.3657   63.9779 C.3     1  ZINC001757264545    0.1400
     12 H12       -10.9536    2.6865   62.9911 H       1  ZINC001757264545    0.1000
     13 C13       -11.0917    3.5066   64.9783 C.3     1  ZINC001757264545   -0.1300
     14 C14       -11.9087    4.7213   64.5332 C.3     1  ZINC001757264545   -0.1200
     15 C15       -13.3904    4.3448   64.4726 C.3     1  ZINC001757264545   -0.1200
     16 C16       -13.5863    3.2039   63.4721 C.3     1  ZINC001757264545   -0.1300
     17 C17       -12.7693    1.9893   63.9174 C.3     1  ZINC001757264545    0.1400
     18 H18       -13.1033    1.6687   64.9041 H       1  ZINC001757264545    0.1000
     19 N19       -12.9568    0.8970   62.9594 N.am    1  ZINC001757264545   -0.7200
     20 C20       -12.5916    1.0594   61.6722 C.2     1  ZINC001757264545    0.6400
     21 O21       -12.1050    2.1121   61.3064 O.2     1  ZINC001757264545   -0.5200
     22 C22       -12.7766   -0.0079   60.7354 C.1     1  ZINC001757264545   -0.2300
     23 C23       -12.9282   -0.8827   59.9673 C.1     1  ZINC001757264545   -0.0500
     24 C24       -13.1183   -1.9797   59.0043 C.3     1  ZINC001757264545    0.0300
     25 C25       -14.1093   -2.9949   59.5769 C.3     1  ZINC001757264545   -0.1400
     26 C26       -13.6663   -1.4165   57.6916 C.3     1  ZINC001757264545   -0.1400
     27 C27       -11.7768   -2.6676   58.7436 C.3     1  ZINC001757264545   -0.1400
     28 H28        -7.7644    6.5370   67.6139 H       1  ZINC001757264545    0.2200
     29 H29        -5.8652    2.8052   67.6450 H       1  ZINC001757264545    0.0900
     30 H30        -5.7957    3.2508   65.9231 H       1  ZINC001757264545    0.0900
     31 H31        -8.1771    2.6119   65.6615 H       1  ZINC001757264545    0.0700
     32 H32        -8.2471    2.1671   67.3835 H       1  ZINC001757264545    0.0700
     33 H33        -6.4792    0.4673   67.0159 H       1  ZINC001757264545    0.0700
     34 H34        -6.4107    0.9116   65.2936 H       1  ZINC001757264545    0.0700
     35 H35        -9.1186    0.2618   66.3702 H       1  ZINC001757264545    0.0700
     36 H36        -7.9772   -1.0993   66.2566 H       1  ZINC001757264545    0.0700
     37 H37        -8.9962   -1.0894   64.1283 H       1  ZINC001757264545    0.0900
     38 H38        -7.4924   -0.1780   63.8519 H       1  ZINC001757264545    0.0900
     39 H39       -10.8854    0.5649   65.0281 H       1  ZINC001757264545    0.4000
     40 H40       -11.4257    3.1859   65.9651 H       1  ZINC001757264545    0.0700
     41 H41       -10.0361    3.7749   65.0215 H       1  ZINC001757264545    0.0800
     42 H42       -11.7692    5.5341   65.2459 H       1  ZINC001757264545    0.0700
     43 H43       -11.5747    5.0420   63.5464 H       1  ZINC001757264545    0.0700
     44 H44       -13.9724    5.2101   64.1555 H       1  ZINC001757264545    0.0700
     45 H45       -13.7244    4.0241   65.4594 H       1  ZINC001757264545    0.0700
     46 H46       -13.2523    3.5246   62.4854 H       1  ZINC001757264545    0.0700
     47 H47       -14.6419    2.9358   63.4290 H       1  ZINC001757264545    0.0800
     48 H48       -13.3439    0.0568   63.2514 H       1  ZINC001757264545    0.4000
     49 H49       -15.0650   -2.5049   59.7627 H       1  ZINC001757264545    0.0600
     50 H50       -14.2501   -3.8072   58.8638 H       1  ZINC001757264545    0.0700
     51 H51       -13.7188   -3.3961   60.5122 H       1  ZINC001757264545    0.0600
     52 H52       -12.9604   -0.6932   57.2837 H       1  ZINC001757264545    0.0600
     53 H53       -13.8071   -2.2287   56.9784 H       1  ZINC001757264545    0.0700
     54 H54       -14.6221   -0.9264   57.8774 H       1  ZINC001757264545    0.0600
     55 H55       -11.3863   -3.0688   59.6788 H       1  ZINC001757264545    0.0600
     56 H56       -11.9175   -3.4798   58.0304 H       1  ZINC001757264545    0.0700
     57 H57       -11.0707   -1.9442   58.3357 H       1  ZINC001757264545    0.0600
@<TRIPOS>BOND
     1     1     2    3
     2     1    28    1
     3     2     3    1
     4     3     4    1
     5     3    29    1
     6     3    30    1
     7     4     5    1
     8     4    31    1
     9     4    32    1
    10     5     6    1
    11     5    33    1
    12     5    34    1
    13     6     7    1
    14     6    35    1
    15     6    36    1
    16     7     8    1
    17     7    37    1
    18     7    38    1
    19     8     9    2
    20     8    10   am
    21    10    11    1
    22    10    39    1
    23    11    12    1
    24    11    17    1
    25    11    13    1
    26    13    14    1
    27    13    40    1
    28    13    41    1
    29    14    15    1
    30    14    42    1
    31    14    43    1
    32    15    16    1
    33    15    44    1
    34    15    45    1
    35    16    17    1
    36    16    46    1
    37    16    47    1
    38    17    18    1
    39    17    19    1
    40    19    20   am
    41    19    48    1
    42    20    21    2
    43    20    22    1
    44    22    23    3
    45    23    24    1
    46    24    25    1
    47    24    26    1
    48    24    27    1
    49    25    49    1
    50    25    50    1
    51    25    51    1
    52    26    52    1
    53    26    53    1
    54    26    54    1
    55    27    55    1
    56    27    56    1
    57    27    57    1
@<TRIPOS>SUBSTRUCTURE
     1 ZINC001757264545        1 TEMP              0 ****  ****    0 ROOT


##########                                Name:    ZINC000569288350
##########                DOCK_Rotatable_Bonds:                   3
##########                         Heavy_Atoms:                  19
##########                    Molecular_Weight:             393.559
##########                DOCK_Rotatable_Bonds:                   3
##########                       Formal_Charge:           0.0299999
##########                     HBond_Acceptors:                   5
##########                        HBond_Donors:                   1
##########                         Heavy_Atoms:                  19
##########                          Grid_Score:          -23.255100
##########                     Grid_vdw_energy:          -23.229418
##########                      Grid_es_energy:           -0.025682
##########           Internal_energy_repulsive:            6.487648

@<TRIPOS>MOLECULE
ZINC000569288350
 26 27 1 0 0
SMALL
USER_CHARGES


@<TRIPOS>ATOM
      1 O1         -9.6717    0.4680   59.7105 O.2     1  ZINC000569288350   -0.4800
      2 C2        -10.0096   -0.0808   60.7415 C.2     1  ZINC000569288350    0.5700
      3 N3        -10.7667   -1.1949   60.6950 N.am    1  ZINC000569288350   -0.6600
      4 C4        -11.1684   -1.7167   59.4606 C.ar    1  ZINC000569288350    0.1800
      5 C5        -12.3721   -1.3174   58.8952 C.ar    1  ZINC000569288350   -0.1200
      6 C6        -12.7673   -1.8336   57.6761 C.ar    1  ZINC000569288350   -0.0600
      7 C7        -11.9665   -2.7480   57.0178 C.ar    1  ZINC000569288350   -0.1500
      8 C8        -10.7648   -3.1497   57.5775 C.ar    1  ZINC000569288350    0.1300
      9 F9         -9.9840   -4.0431   56.9315 F       1  ZINC000569288350   -0.1200
     10 C10       -10.3609   -2.6312   58.7955 C.ar    1  ZINC000569288350   -0.1000
     11 Cl11       -8.8548   -3.1333   59.4978 Cl      1  ZINC000569288350   -0.0400
     12 C12        -9.5858    0.4698   62.0440 C.ar    1  ZINC000569288350   -0.1400
     13 C13        -8.7772   -0.2876   62.8976 C.ar    1  ZINC000569288350    0.1400
     14 F14        -8.3803   -1.5264   62.5329 F       1  ZINC000569288350   -0.1200
     15 C15        -8.3848    0.2361   64.1161 C.ar    1  ZINC000569288350   -0.1300
     16 C16        -8.7905    1.5035   64.4898 C.ar    1  ZINC000569288350   -0.0600
     17 C17        -9.5913    2.2578   63.6495 C.ar    1  ZINC000569288350   -0.0900
     18 C18        -9.9856    1.7525   62.4281 C.ar    1  ZINC000569288350   -0.0500
     19 I19       -11.1974    2.8980   61.1598 I       1  ZINC000569288350    0.0000
     20 H20       -11.0330   -1.6349   61.5174 H       1  ZINC000569288350    0.4200
     21 H21       -12.9995   -0.6035   59.4084 H       1  ZINC000569288350    0.1600
     22 H22       -13.7037   -1.5225   57.2370 H       1  ZINC000569288350    0.1500
     23 H23       -12.2786   -3.1503   56.0654 H       1  ZINC000569288350    0.1500
     24 H24        -7.7604   -0.3467   64.7770 H       1  ZINC000569288350    0.1500
     25 H25        -8.4814    1.9073   65.4425 H       1  ZINC000569288350    0.1500
     26 H26        -9.9042    3.2471   63.9491 H       1  ZINC000569288350    0.1500
@<TRIPOS>BOND
     1     1     2    2
     2     2     3   am
     3     2    12    1
     4     3     4    1
     5     3    20    1
     6     4    10   ar
     7     4     5   ar
     8     5     6   ar
     9     5    21    1
    10     6     7   ar
    11     6    22    1
    12     7     8   ar
    13     7    23    1
    14     8     9    1
    15     8    10   ar
    16    10    11    1
    17    12    18   ar
    18    12    13   ar
    19    13    14    1
    20    13    15   ar
    21    15    16   ar
    22    15    24    1
    23    16    17   ar
    24    16    25    1
    25    17    18   ar
    26    17    26    1
    27    18    19    1
@<TRIPOS>SUBSTRUCTURE
     1 ZINC000569288350        1 TEMP              0 ****  ****    0 ROOT


##########                                Name:    ZINC001312809190
##########                DOCK_Rotatable_Bonds:                   6
##########                         Heavy_Atoms:                  29
##########                    Molecular_Weight:             395.501
##########                DOCK_Rotatable_Bonds:                   6
##########                       Formal_Charge:           0.0199995
##########                     HBond_Acceptors:                   6
##########                        HBond_Donors:                   1
##########                         Heavy_Atoms:                  29
##########                          Grid_Score:          -23.204836
##########                     Grid_vdw_energy:          -22.736065
##########                      Grid_es_energy:           -0.468770
##########           Internal_energy_repulsive:           36.386898

@<TRIPOS>MOLECULE
ZINC001312809190
 58 61 1 0 0
SMALL
USER_CHARGES


@<TRIPOS>ATOM
      1 C1        -11.4321    6.6590   55.0208 C.3     1  ZINC001312809190    0.0300
      2 O2        -10.4991    6.5647   53.9425 O.3     1  ZINC001312809190   -0.3200
      3 C3         -9.2198    6.2346   54.2607 C.ar    1  ZINC001312809190    0.1300
      4 C4         -8.2616    6.1266   53.2637 C.ar    1  ZINC001312809190   -0.2100
      5 C5         -6.9616    5.7912   53.5899 C.ar    1  ZINC001312809190   -0.0800
      6 C6         -6.6155    5.5629   54.9086 C.ar    1  ZINC001312809190   -0.1300
      7 C7         -7.5691    5.6695   55.9045 C.ar    1  ZINC001312809190   -0.0500
      8 C8         -7.1886    5.4195   57.3411 C.3     1  ZINC001312809190    0.1200
      9 H9         -6.8680    6.3547   57.8001 H       1  ZINC001312809190    0.0500
     10 C10        -6.0441    4.4056   57.3965 C.3     1  ZINC001312809190   -0.1400
     11 N11        -8.3486    4.8889   58.0698 N.3     1  ZINC001312809190   -0.5300
     12 C12        -8.0288    4.6803   59.4883 C.3     1  ZINC001312809190    0.0300
     13 C13        -9.3057    4.3017   60.2461 C.3     1  ZINC001312809190    0.1400
     14 N14        -9.9248    3.1502   59.5723 N.am    1  ZINC001312809190   -0.6300
     15 C15       -10.2758    2.0494   60.2661 C.2     1  ZINC001312809190    0.7100
     16 O16       -10.0817    1.9990   61.4653 O.2     1  ZINC001312809190   -0.5800
     17 N17       -10.8420    1.0044   59.6306 N.am    1  ZINC001312809190   -0.7300
     18 C18       -11.2235   -0.1922   60.3847 C.3     1  ZINC001312809190    0.1800
     19 H19       -10.7704   -0.1864   61.3761 H       1  ZINC001312809190    0.1200
     20 C20       -12.7320   -0.3155   60.4790 C.ar    1  ZINC001312809190   -0.1900
     21 C21       -13.7163    0.5952   60.7918 C.ar    1  ZINC001312809190   -0.0500
     22 C22       -15.0439    0.2046   60.7949 C.ar    1  ZINC001312809190   -0.1500
     23 C23       -15.3762   -1.1006   60.4834 C.ar    1  ZINC001312809190   -0.0800
     24 C24       -14.3912   -2.0157   60.1732 C.ar    1  ZINC001312809190   -0.1400
     25 C25       -13.0528   -1.6317   60.1711 C.ar    1  ZINC001312809190    0.1100
     26 O26       -11.9344   -2.3649   59.9164 O.3     1  ZINC001312809190   -0.2900
     27 C27       -10.8445   -1.4774   59.6113 C.3     1  ZINC001312809190    0.0800
     28 H28       -10.7937   -1.2822   58.5401 H       1  ZINC001312809190    0.0900
     29 C29        -9.5201   -2.0509   60.1189 C.3     1  ZINC001312809190   -0.1500
     30 C30       -10.1513    3.2322   58.1213 C.3     1  ZINC001312809190    0.1200
     31 C31        -8.8410    3.6529   57.4472 C.3     1  ZINC001312809190    0.0400
     32 C32        -8.8687    6.0105   55.5843 C.ar    1  ZINC001312809190   -0.1500
     33 H33       -12.4132    6.9286   54.6298 H       1  ZINC001312809190    0.1000
     34 H34       -11.4959    5.6980   55.5312 H       1  ZINC001312809190    0.0600
     35 H35       -11.0988    7.4224   55.7238 H       1  ZINC001312809190    0.0600
     36 H36        -8.5316    6.3040   52.2331 H       1  ZINC001312809190    0.1300
     37 H37        -6.2151    5.7070   52.8139 H       1  ZINC001312809190    0.1300
     38 H38        -5.5989    5.3006   55.1616 H       1  ZINC001312809190    0.1300
     39 H39        -6.3647    3.4702   56.9375 H       1  ZINC001312809190    0.0700
     40 H40        -5.1834    4.7992   56.8558 H       1  ZINC001312809190    0.0600
     41 H41        -5.7689    4.2247   58.4356 H       1  ZINC001312809190    0.0600
     42 H42        -7.2983    3.8766   59.5821 H       1  ZINC001312809190    0.0400
     43 H43        -7.6159    5.5981   59.9069 H       1  ZINC001312809190    0.1000
     44 H44        -9.0564    4.0345   61.2730 H       1  ZINC001312809190    0.1000
     45 H45        -9.9975    5.1441   60.2416 H       1  ZINC001312809190    0.0700
     46 H46       -10.9970    1.0446   58.6739 H       1  ZINC001312809190    0.4000
     47 H47       -13.4522    1.6138   61.0348 H       1  ZINC001312809190    0.1200
     48 H48       -15.8177    0.9170   61.0401 H       1  ZINC001312809190    0.1300
     49 H49       -16.4121   -1.4058   60.4832 H       1  ZINC001312809190    0.1300
     50 H50       -14.6593   -3.0335   59.9315 H       1  ZINC001312809190    0.1300
     51 H51        -9.3216   -3.0010   59.6228 H       1  ZINC001312809190    0.0800
     52 H52        -8.7134   -1.3512   59.9002 H       1  ZINC001312809190    0.0800
     53 H53        -9.5816   -2.2094   61.1957 H       1  ZINC001312809190    0.0700
     54 H54       -10.4611    2.2578   57.7435 H       1  ZINC001312809190    0.0800
     55 H55       -10.9243    3.9717   57.9126 H       1  ZINC001312809190    0.0800
     56 H56        -9.0174    3.8256   56.3855 H       1  ZINC001312809190    0.0900
     57 H57        -8.0993    2.8636   57.5694 H       1  ZINC001312809190    0.0400
     58 H58        -9.6130    6.0940   56.3624 H       1  ZINC001312809190    0.1300
@<TRIPOS>BOND
     1     1     2    1
     2     1    33    1
     3     1    34    1
     4     1    35    1
     5     2     3    1
     6     3    32   ar
     7     3     4   ar
     8     4     5   ar
     9     4    36    1
    10     5     6   ar
    11     5    37    1
    12     6     7   ar
    13     6    38    1
    14     7     8    1
    15     7    32   ar
    16     8     9    1
    17     8    10    1
    18     8    11    1
    19    10    39    1
    20    10    40    1
    21    10    41    1
    22    11    31    1
    23    11    12    1
    24    12    13    1
    25    12    42    1
    26    12    43    1
    27    13    14    1
    28    13    44    1
    29    13    45    1
    30    14    15   am
    31    14    30    1
    32    15    16    2
    33    15    17   am
    34    17    18    1
    35    17    46    1
    36    18    19    1
    37    18    27    1
    38    18    20    1
    39    20    25   ar
    40    20    21   ar
    41    21    22   ar
    42    21    47    1
    43    22    23   ar
    44    22    48    1
    45    23    24   ar
    46    23    49    1
    47    24    25   ar
    48    24    50    1
    49    25    26    1
    50    26    27    1
    51    27    28    1
    52    27    29    1
    53    29    51    1
    54    29    52    1
    55    29    53    1
    56    30    31    1
    57    30    54    1
    58    30    55    1
    59    31    56    1
    60    31    57    1
    61    32    58    1
@<TRIPOS>SUBSTRUCTURE
     1 ZINC001312809190        1 TEMP              0 ****  ****    0 ROOT


##########                                Name:    ZINC001023407238
##########                DOCK_Rotatable_Bonds:                   7
##########                         Heavy_Atoms:                  25
##########                    Molecular_Weight:             349.387
##########                DOCK_Rotatable_Bonds:                   7
##########                       Formal_Charge:          -0.0300008
##########                     HBond_Acceptors:                   8
##########                        HBond_Donors:                   2
##########                         Heavy_Atoms:                  25
##########                          Grid_Score:          -23.197655
##########                     Grid_vdw_energy:          -23.073673
##########                      Grid_es_energy:           -0.123982
##########           Internal_energy_repulsive:          121.851921

@<TRIPOS>MOLECULE
ZINC001023407238
 48 50 1 0 0
SMALL
USER_CHARGES


@<TRIPOS>ATOM
      1 C1        -12.8367    1.5982   62.8412 C.3     1  ZINC001023407238   -0.0900
      2 C2        -12.8814    2.2668   61.4914 C.2     1  ZINC001023407238   -0.1100
      3 C3        -11.9070    2.2122   60.5175 C.2     1  ZINC001023407238   -0.0500
      4 C4        -10.6330    1.4906   60.6052 C.2     1  ZINC001023407238    0.6100
      5 O5         -9.6756    2.0101   61.1479 O.2     1  ZINC001023407238   -0.5100
      6 N6        -10.5227    0.2523   60.0847 N.am    1  ZINC001023407238   -0.6100
      7 C7         -9.3108   -0.5799   60.1027 C.3     1  ZINC001023407238    0.0800
      8 C8         -9.6638   -1.9180   59.4197 C.3     1  ZINC001023407238    0.0900
      9 H9         -9.3724   -1.9036   58.3695 H       1  ZINC001023407238    0.0800
     10 O10        -9.0440   -3.0115   60.0995 O.3     1  ZINC001023407238   -0.5500
     11 C11       -11.2076   -1.9834   59.5603 C.3     1  ZINC001023407238    0.1400
     12 H12       -11.4949   -2.3614   60.5415 H       1  ZINC001023407238    0.1200
     13 N13       -11.7980   -2.7961   58.4940 N.am    1  ZINC001023407238   -0.7200
     14 C14       -13.1067   -3.1156   58.5363 C.2     1  ZINC001023407238    0.5200
     15 O15       -13.7952   -2.7315   59.4580 O.2     1  ZINC001023407238   -0.5300
     16 C16       -13.7145   -3.9501   57.4385 C.3     1  ZINC001023407238   -0.1300
     17 C17       -15.1482   -3.4839   57.1778 C.3     1  ZINC001023407238   -0.1100
     18 H18       -15.6296   -4.1139   56.4297 H       1  ZINC001023407238    0.1100
     19 C19       -15.9671   -3.4619   58.4885 C.3     1  ZINC001023407238    0.0600
     20 O20       -16.8603   -2.3187   58.3404 O.3     1  ZINC001023407238   -0.3500
     21 C21       -16.2760   -1.3779   57.5849 C.2     1  ZINC001023407238    0.4800
     22 O22       -16.5822   -0.2091   57.5711 O.2     1  ZINC001023407238   -0.4600
     23 C23       -15.1747   -2.0003   56.7472 C.3     1  ZINC001023407238   -0.1800
     24 C24       -11.5990   -0.4945   59.4085 C.3     1  ZINC001023407238    0.1000
     25 N25       -12.3478    2.9578   59.4476 N.pl3   1  ZINC001023407238   -0.4200
     26 C26       -11.6190    3.1675   58.1942 C.3     1  ZINC001023407238    0.0700
     27 C27       -13.5683    3.4656   59.7469 C.2     1  ZINC001023407238    0.0100
     28 C28       -13.9215    3.0544   60.9883 C.2     1  ZINC001023407238   -0.2000
     29 H29       -13.2671    0.5995   62.7665 H       1  ZINC001023407238    0.0600
     30 H30       -11.8020    1.5238   63.1758 H       1  ZINC001023407238    0.0600
     31 H31       -13.4088    2.1876   63.5578 H       1  ZINC001023407238    0.0700
     32 H32        -8.5116   -0.0827   59.5531 H       1  ZINC001023407238    0.0800
     33 H33        -8.9998   -0.7597   61.1318 H       1  ZINC001023407238    0.0800
     34 H34        -9.4796   -3.8626   59.9544 H       1  ZINC001023407238    0.3900
     35 H35       -11.2472   -3.1042   57.7574 H       1  ZINC001023407238    0.4100
     36 H36       -13.1250   -3.8385   56.5285 H       1  ZINC001023407238    0.1000
     37 H37       -13.7222   -4.9975   57.7401 H       1  ZINC001023407238    0.1100
     38 H38       -16.5412   -4.3824   58.5941 H       1  ZINC001023407238    0.1200
     39 H39       -15.3090   -3.3222   59.3462 H       1  ZINC001023407238    0.0800
     40 H40       -14.2177   -1.5267   56.9663 H       1  ZINC001023407238    0.1100
     41 H41       -15.4088   -1.9117   55.6863 H       1  ZINC001023407238    0.1200
     42 H42       -12.5582   -0.3035   59.8900 H       1  ZINC001023407238    0.0900
     43 H43       -11.6409   -0.2187   58.3549 H       1  ZINC001023407238    0.0800
     44 H44       -11.9472    2.4354   57.4563 H       1  ZINC001023407238    0.0800
     45 H45       -11.8178    4.1726   57.8222 H       1  ZINC001023407238    0.0900
     46 H46       -10.5500    3.0505   58.3716 H       1  ZINC001023407238    0.0800
     47 H47       -14.1636    4.0924   59.0998 H       1  ZINC001023407238    0.1700
     48 H48       -14.8402    3.2977   61.5013 H       1  ZINC001023407238    0.1400
@<TRIPOS>BOND
     1     1     2    1
     2     1    29    1
     3     1    30    1
     4     1    31    1
     5     2    28    1
     6     2     3    2
     7     3     4    1
     8     3    25    1
     9     4     5    2
    10     4     6   am
    11     6    24    1
    12     6     7    1
    13     7     8    1
    14     7    32    1
    15     7    33    1
    16     8     9    1
    17     8    10    1
    18     8    11    1
    19    10    34    1
    20    11    12    1
    21    11    13    1
    22    11    24    1
    23    13    14   am
    24    13    35    1
    25    14    15    2
    26    14    16    1
    27    16    17    1
    28    16    36    1
    29    16    37    1
    30    17    18    1
    31    17    23    1
    32    17    19    1
    33    19    20    1
    34    19    38    1
    35    19    39    1
    36    20    21    1
    37    21    22    2
    38    21    23    1
    39    23    40    1
    40    23    41    1
    41    24    42    1
    42    24    43    1
    43    25    26    1
    44    25    27    1
    45    26    44    1
    46    26    45    1
    47    26    46    1
    48    27    28    2
    49    27    47    1
    50    28    48    1
@<TRIPOS>SUBSTRUCTURE
     1 ZINC001023407238        1 TEMP              0 ****  ****    0 ROOT


##########                                Name:    ZINC001456096501
##########                DOCK_Rotatable_Bonds:                   7
##########                         Heavy_Atoms:                  24
##########                    Molecular_Weight:             333.431
##########                DOCK_Rotatable_Bonds:                   7
##########                       Formal_Charge:          -0.0200003
##########                     HBond_Acceptors:                   6
##########                        HBond_Donors:                   0
##########                         Heavy_Atoms:                  24
##########                          Grid_Score:          -23.195469
##########                     Grid_vdw_energy:          -23.545301
##########                      Grid_es_energy:            0.349833
##########           Internal_energy_repulsive:          160.066589

@<TRIPOS>MOLECULE
ZINC001456096501
 51 52 1 0 0
SMALL
USER_CHARGES


@<TRIPOS>ATOM
      1 C1        -13.0086   -0.9089   56.8025 C.3     1  ZINC001456096501    0.0400
      2 O2        -13.0756   -2.2552   57.2770 O.3     1  ZINC001456096501   -0.2900
      3 C3        -11.9116   -2.8295   57.6633 C.ar    1  ZINC001456096501    0.3700
      4 N4        -11.0952   -3.3354   56.7548 N.ar    1  ZINC001456096501   -0.5400
      5 C5         -9.9518   -3.9033   57.0868 C.ar    1  ZINC001456096501    0.1600
      6 C6         -9.5548   -3.9948   58.4085 C.ar    1  ZINC001456096501   -0.2200
      7 C7        -10.3710   -3.4817   59.4013 C.ar    1  ZINC001456096501   -0.0200
      8 C8        -11.5767   -2.8791   59.0250 C.ar    1  ZINC001456096501   -0.2000
      9 C9        -12.4841   -2.3153   60.0425 C.2     1  ZINC001456096501    0.5900
     10 O10       -13.5517   -2.8512   60.2688 O.2     1  ZINC001456096501   -0.5100
     11 N11       -12.1296   -1.2060   60.7211 N.am    1  ZINC001456096501   -0.6200
     12 C12       -12.9341   -0.5412   61.7566 C.3     1  ZINC001456096501    0.1000
     13 C13       -12.1409    0.6952   62.2295 C.3     1  ZINC001456096501   -0.1200
     14 C14       -11.1909    0.9762   61.0355 C.3     1  ZINC001456096501   -0.1200
     15 H15       -11.6984    1.5481   60.2586 H       1  ZINC001456096501    0.0900
     16 C16        -9.9226    1.6943   61.5010 C.3     1  ZINC001456096501    0.1200
     17 N17        -9.3662    2.4717   60.3908 N.am    1  ZINC001456096501   -0.6200
     18 C18        -9.0099    1.8049   59.1360 C.3     1  ZINC001456096501    0.0600
     19 C19        -9.1824    3.8002   60.5238 C.2     1  ZINC001456096501    0.5200
     20 O20        -8.7220    4.4437   59.6048 O.2     1  ZINC001456096501   -0.5300
     21 C21        -9.5493    4.4860   61.8146 C.3     1  ZINC001456096501   -0.0800
     22 C22        -9.2351    5.9795   61.7058 C.3     1  ZINC001456096501   -0.1300
     23 C23       -11.0432    4.2976   62.0857 C.3     1  ZINC001456096501   -0.1500
     24 C24        -8.7418    3.8775   62.9630 C.3     1  ZINC001456096501   -0.1700
     25 C25       -10.8680   -0.4621   60.5525 C.3     1  ZINC001456096501    0.1200
     26 H26       -12.6114   -0.2660   57.5882 H       1  ZINC001456096501    0.0600
     27 H27       -12.3558   -0.8629   55.9308 H       1  ZINC001456096501    0.0600
     28 H28       -14.0074   -0.5707   56.5268 H       1  ZINC001456096501    0.1000
     29 H29        -9.3144   -4.3043   56.3127 H       1  ZINC001456096501    0.1700
     30 H30        -8.6157   -4.4632   58.6638 H       1  ZINC001456096501    0.1500
     31 H31       -10.0829   -3.5415   60.4404 H       1  ZINC001456096501    0.1500
     32 H32       -13.8917   -0.2300   61.3392 H       1  ZINC001456096501    0.0700
     33 H33       -13.0955   -1.2205   62.5936 H       1  ZINC001456096501    0.0700
     34 H34       -12.8085    1.5401   62.3984 H       1  ZINC001456096501    0.0900
     35 H35       -11.5712    0.4664   63.1302 H       1  ZINC001456096501    0.0800
     36 H36       -10.1660    2.3630   62.3267 H       1  ZINC001456096501    0.0800
     37 H37        -9.1897    0.9589   61.8329 H       1  ZINC001456096501    0.0900
     38 H38        -9.8532    1.8523   58.4471 H       1  ZINC001456096501    0.0600
     39 H39        -8.1488    2.3038   58.6913 H       1  ZINC001456096501    0.0900
     40 H40        -8.7624    0.7623   59.3361 H       1  ZINC001456096501    0.0700
     41 H41        -9.8103    6.4131   60.8877 H       1  ZINC001456096501    0.0600
     42 H42        -9.5004    6.4756   62.6393 H       1  ZINC001456096501    0.0600
     43 H43        -8.1708    6.1137   61.5126 H       1  ZINC001456096501    0.0600
     44 H44       -11.2912    3.2375   62.0325 H       1  ZINC001456096501    0.0700
     45 H45       -11.2830    4.6775   63.0788 H       1  ZINC001456096501    0.0700
     46 H46       -11.6197    4.8434   61.3389 H       1  ZINC001456096501    0.0600
     47 H47        -7.6774    4.0117   62.7698 H       1  ZINC001456096501    0.0600
     48 H48        -9.0071    4.3736   63.8965 H       1  ZINC001456096501    0.0700
     49 H49        -8.9656    2.8135   63.0405 H       1  ZINC001456096501    0.0800
     50 H50       -10.0789   -0.8996   61.1641 H       1  ZINC001456096501    0.0800
     51 H51       -10.5744   -0.4529   59.5028 H       1  ZINC001456096501    0.0700
@<TRIPOS>BOND
     1     1     2    1
     2     1    26    1
     3     1    27    1
     4     1    28    1
     5     2     3    1
     6     3     8   ar
     7     3     4   ar
     8     4     5   ar
     9     5     6   ar
    10     5    29    1
    11     6     7   ar
    12     6    30    1
    13     7     8   ar
    14     7    31    1
    15     8     9    1
    16     9    10    2
    17     9    11   am
    18    11    25    1
    19    11    12    1
    20    12    13    1
    21    12    32    1
    22    12    33    1
    23    13    14    1
    24    13    34    1
    25    13    35    1
    26    14    15    1
    27    14    16    1
    28    14    25    1
    29    16    17    1
    30    16    36    1
    31    16    37    1
    32    17    18    1
    33    17    19   am
    34    18    38    1
    35    18    39    1
    36    18    40    1
    37    19    20    2
    38    19    21    1
    39    21    22    1
    40    21    23    1
    41    21    24    1
    42    22    41    1
    43    22    42    1
    44    22    43    1
    45    23    44    1
    46    23    45    1
    47    23    46    1
    48    24    47    1
    49    24    48    1
    50    24    49    1
    51    25    50    1
    52    25    51    1
@<TRIPOS>SUBSTRUCTURE
     1 ZINC001456096501        1 TEMP              0 ****  ****    0 ROOT


##########                                Name:    ZINC000504638019
##########                DOCK_Rotatable_Bonds:                   8
##########                         Heavy_Atoms:                  24
##########                    Molecular_Weight:             328.454
##########                DOCK_Rotatable_Bonds:                   8
##########                       Formal_Charge:        -1.49012e-08
##########                     HBond_Acceptors:                   4
##########                        HBond_Donors:                   1
##########                         Heavy_Atoms:                  24
##########                          Grid_Score:          -23.113245
##########                     Grid_vdw_energy:          -21.434011
##########                      Grid_es_energy:           -1.679234
##########           Internal_energy_repulsive:           19.097235

@<TRIPOS>MOLECULE
ZINC000504638019
 52 53 1 0 0
SMALL
USER_CHARGES


@<TRIPOS>ATOM
      1 C1         -8.0150   -0.1776   65.1502 C.3     1  ZINC000504638019   -0.1200
      2 C2         -8.9106    0.3640   64.0659 C.ar    1  ZINC000504638019   -0.0900
      3 C3         -9.5084    1.6012   64.2171 C.ar    1  ZINC000504638019   -0.1200
      4 C4        -10.3299    2.0980   63.2225 C.ar    1  ZINC000504638019   -0.1100
      5 C5        -10.5533    1.3578   62.0766 C.ar    1  ZINC000504638019   -0.0900
      6 C6        -11.4493    1.8992   60.9926 C.3     1  ZINC000504638019   -0.0600
      7 H7        -11.4033    1.2445   60.1224 H       1  ZINC000504638019    0.0900
      8 C8        -12.8891    1.9645   61.5063 C.3     1  ZINC000504638019   -0.1500
      9 C9        -10.9838    3.3028   60.6000 C.3     1  ZINC000504638019    0.1300
     10 N10        -9.5671    3.2615   60.2292 N.am    1  ZINC000504638019   -0.7000
     11 C11        -9.1732    3.7121   59.0215 C.2     1  ZINC000504638019    0.5100
     12 O12        -9.9918    4.1532   58.2419 O.2     1  ZINC000504638019   -0.5100
     13 C13        -7.7282    3.6684   58.6425 C.2     1  ZINC000504638019    0.5100
     14 O14        -7.3325    2.8346   57.8547 O.2     1  ZINC000504638019   -0.5200
     15 N15        -6.8645    4.5551   59.1757 N.am    1  ZINC000504638019   -0.5800
     16 C16        -7.3422    5.5618   60.1268 C.3     1  ZINC000504638019    0.0600
     17 C17        -5.4481    4.5122   58.8042 C.3     1  ZINC000504638019    0.1100
     18 C18        -5.2136    5.4050   57.5841 C.3     1  ZINC000504638019   -0.1000
     19 H19        -5.5024    6.4295   57.8189 H       1  ZINC000504638019    0.0800
     20 C20        -6.0445    4.8938   56.4052 C.3     1  ZINC000504638019   -0.0800
     21 C21        -5.6297    5.5877   55.1409 C.2     1  ZINC000504638019   -0.1500
     22 C22        -4.5180    6.2357   55.0005 C.2     1  ZINC000504638019   -0.1600
     23 C23        -3.4931    6.3922   56.0855 C.3     1  ZINC000504638019   -0.0900
     24 C24        -3.7311    5.3641   57.1924 C.3     1  ZINC000504638019   -0.1100
     25 C25        -9.9544    0.1212   61.9249 C.ar    1  ZINC000504638019   -0.1100
     26 C26        -9.1298   -0.3740   62.9178 C.ar    1  ZINC000504638019   -0.1200
     27 H27        -6.9891    0.1422   64.9676 H       1  ZINC000504638019    0.0700
     28 H28        -8.3465    0.1999   66.1176 H       1  ZINC000504638019    0.0700
     29 H29        -8.0617   -1.2666   65.1498 H       1  ZINC000504638019    0.0700
     30 H30        -9.3339    2.1795   65.1123 H       1  ZINC000504638019    0.1200
     31 H31       -10.7975    3.0643   63.3409 H       1  ZINC000504638019    0.1200
     32 H32       -13.5371    2.3562   60.7222 H       1  ZINC000504638019    0.0600
     33 H33       -13.2207    0.9646   61.7860 H       1  ZINC000504638019    0.0600
     34 H34       -12.9350    2.6192   62.3764 H       1  ZINC000504638019    0.0600
     35 H35       -11.5709    3.6566   59.7526 H       1  ZINC000504638019    0.0800
     36 H36       -11.1190    3.9796   61.4437 H       1  ZINC000504638019    0.0800
     37 H37        -8.9125    2.9101   60.8529 H       1  ZINC000504638019    0.4100
     38 H38        -7.3773    5.1293   61.1267 H       1  ZINC000504638019    0.0600
     39 H39        -6.6641    6.4152   60.1237 H       1  ZINC000504638019    0.0700
     40 H40        -8.3406    5.8899   59.8377 H       1  ZINC000504638019    0.1100
     41 H41        -4.8429    4.8693   59.6374 H       1  ZINC000504638019    0.0900
     42 H42        -5.1664    3.4871   58.5638 H       1  ZINC000504638019    0.0900
     43 H43        -5.8923    3.8200   56.2947 H       1  ZINC000504638019    0.0800
     44 H44        -7.0998    5.0893   56.5952 H       1  ZINC000504638019    0.0600
     45 H45        -6.3003    5.5434   54.2955 H       1  ZINC000504638019    0.1000
     46 H46        -4.3152    6.6919   54.0428 H       1  ZINC000504638019    0.1000
     47 H47        -2.4975    6.2484   55.6656 H       1  ZINC000504638019    0.0700
     48 H48        -3.5638    7.3947   56.5074 H       1  ZINC000504638019    0.0700
     49 H49        -3.1119    5.6060   58.0563 H       1  ZINC000504638019    0.0700
     50 H50        -3.4822    4.3678   56.8269 H       1  ZINC000504638019    0.0700
     51 H51       -10.1285   -0.4570   61.0294 H       1  ZINC000504638019    0.1200
     52 H52        -8.6619   -1.3401   62.7992 H       1  ZINC000504638019    0.1200
@<TRIPOS>BOND
     1     1     2    1
     2     1    27    1
     3     1    28    1
     4     1    29    1
     5     2    26   ar
     6     2     3   ar
     7     3     4   ar
     8     3    30    1
     9     4     5   ar
    10     4    31    1
    11     5     6    1
    12     5    25   ar
    13     6     7    1
    14     6     8    1
    15     6     9    1
    16     8    32    1
    17     8    33    1
    18     8    34    1
    19     9    10    1
    20     9    35    1
    21     9    36    1
    22    10    11   am
    23    10    37    1
    24    11    12    2
    25    11    13    1
    26    13    14    2
    27    13    15   am
    28    15    16    1
    29    15    17    1
    30    16    38    1
    31    16    39    1
    32    16    40    1
    33    17    18    1
    34    17    41    1
    35    17    42    1
    36    18    19    1
    37    18    24    1
    38    18    20    1
    39    20    21    1
    40    20    43    1
    41    20    44    1
    42    21    22    2
    43    21    45    1
    44    22    23    1
    45    22    46    1
    46    23    24    1
    47    23    47    1
    48    23    48    1
    49    24    49    1
    50    24    50    1
    51    25    26   ar
    52    25    51    1
    53    26    52    1
@<TRIPOS>SUBSTRUCTURE
     1 ZINC000504638019        1 TEMP              0 ****  ****    0 ROOT


##########                                Name:    ZINC000151850193
##########                DOCK_Rotatable_Bonds:                  11
##########                         Heavy_Atoms:                  23
##########                    Molecular_Weight:             328.452
##########                DOCK_Rotatable_Bonds:                  11
##########                       Formal_Charge:            0.039999
##########                     HBond_Acceptors:                   6
##########                        HBond_Donors:                   2
##########                         Heavy_Atoms:                  23
##########                          Grid_Score:          -22.988844
##########                     Grid_vdw_energy:          -22.638102
##########                      Grid_es_energy:           -0.350743
##########           Internal_energy_repulsive:           55.904560

@<TRIPOS>MOLECULE
ZINC000151850193
 55 55 1 0 0
SMALL
USER_CHARGES


@<TRIPOS>ATOM
      1 C1        -12.9601    0.4547   58.4380 C.3     1  ZINC000151850193   -0.1500
      2 C2        -12.1029   -0.4776   59.2965 C.3     1  ZINC000151850193   -0.1000
      3 C3        -11.2453    0.3542   60.2523 C.3     1  ZINC000151850193   -0.0800
      4 C4        -12.0627    1.3702   61.0526 C.3     1  ZINC000151850193   -0.1000
      5 C5        -13.1306    0.6373   61.8671 C.3     1  ZINC000151850193   -0.1500
      6 C6        -10.2911   -0.4883   61.1152 C.3     1  ZINC000151850193    0.1400
      7 H7        -10.6302   -1.5129   61.2682 H       1  ZINC000151850193    0.1000
      8 N8         -9.8905    0.1703   62.3610 N.am    1  ZINC000151850193   -0.7000
      9 C9         -8.9310   -0.3762   63.1339 C.2     1  ZINC000151850193    0.5200
     10 O10        -8.4005   -1.4141   62.7988 O.2     1  ZINC000151850193   -0.5300
     11 C11        -8.5177    0.3022   64.4145 C.3     1  ZINC000151850193   -0.1500
     12 C12        -8.8235    1.7983   64.3209 C.3     1  ZINC000151850193    0.1500
     13 N13       -10.1485    2.0623   64.8874 N.am    1  ZINC000151850193   -0.7100
     14 C14       -10.8639    3.1228   64.4628 C.2     1  ZINC000151850193    0.6500
     15 O15       -10.4092    3.8607   63.6112 O.2     1  ZINC000151850193   -0.5600
     16 O16       -12.0822    3.3645   64.9824 O.3     1  ZINC000151850193   -0.3700
     17 C17       -12.7956    4.5241   64.4779 C.3     1  ZINC000151850193    0.1400
     18 C18       -11.9749    5.7862   64.7501 C.3     1  ZINC000151850193   -0.1800
     19 C19       -13.0138    4.3729   62.9711 C.3     1  ZINC000151850193   -0.1400
     20 C20       -14.1502    4.6351   65.1807 C.3     1  ZINC000151850193   -0.1800
     21 C21        -9.2629   -0.3426   59.9810 C.3     1  ZINC000151850193   -0.1700
     22 C22        -9.9925    0.9541   59.5923 C.3     1  ZINC000151850193    0.0700
     23 H23       -10.0908    1.0940   58.5157 H       1  ZINC000151850193    0.0800
     24 O24        -9.4921    2.1146   60.2593 O.3     1  ZINC000151850193   -0.3700
     25 C25        -8.6878    2.9585   59.4328 C.3     1  ZINC000151850193    0.0300
     26 H26       -13.6302    1.0263   59.0802 H       1  ZINC000151850193    0.0600
     27 H27       -12.3137    1.1382   57.8873 H       1  ZINC000151850193    0.0600
     28 H28       -13.5470   -0.1362   57.7348 H       1  ZINC000151850193    0.0600
     29 H29       -12.7504   -1.1395   59.8717 H       1  ZINC000151850193    0.0700
     30 H30       -11.4557   -1.0724   58.6520 H       1  ZINC000151850193    0.0700
     31 H31       -11.4033    1.9170   61.7266 H       1  ZINC000151850193    0.0700
     32 H32       -12.5437    2.0691   60.3684 H       1  ZINC000151850193    0.0700
     33 H33       -13.8329    0.1503   61.1906 H       1  ZINC000151850193    0.0500
     34 H34       -12.6546   -0.1130   62.4986 H       1  ZINC000151850193    0.0500
     35 H35       -13.6651    1.3525   62.4924 H       1  ZINC000151850193    0.0500
     36 H36       -10.3156    0.9998   62.6295 H       1  ZINC000151850193    0.4100
     37 H37        -9.0699   -0.1299   65.2491 H       1  ZINC000151850193    0.1000
     38 H38        -7.4489    0.1590   64.5730 H       1  ZINC000151850193    0.1000
     39 H39        -8.0721    2.3583   64.8775 H       1  ZINC000151850193    0.0800
     40 H40        -8.8070    2.1078   63.2758 H       1  ZINC000151850193    0.0800
     41 H41       -10.5109    1.4740   65.5681 H       1  ZINC000151850193    0.4100
     42 H42       -11.0099    5.7071   64.2495 H       1  ZINC000151850193    0.0600
     43 H43       -12.5105    6.6567   64.3715 H       1  ZINC000151850193    0.0700
     44 H44       -11.8194    5.8940   65.8237 H       1  ZINC000151850193    0.0900
     45 H45       -13.5985    3.4737   62.7770 H       1  ZINC000151850193    0.0700
     46 H46       -13.5494    5.2433   62.5923 H       1  ZINC000151850193    0.0800
     47 H47       -12.0489    4.2937   62.4703 H       1  ZINC000151850193    0.0700
     48 H48       -13.9947    4.7428   66.2541 H       1  ZINC000151850193    0.0900
     49 H49       -14.6858    5.5056   64.8019 H       1  ZINC000151850193    0.0700
     50 H50       -14.7349    3.7359   64.9866 H       1  ZINC000151850193    0.0600
     51 H51        -8.2441   -0.1815   60.3332 H       1  ZINC000151850193    0.0800
     52 H52        -9.3320   -1.1256   59.2258 H       1  ZINC000151850193    0.1000
     53 H53        -7.8255    2.3982   59.0716 H       1  ZINC000151850193    0.0400
     54 H54        -9.2777    3.3047   58.5840 H       1  ZINC000151850193    0.0400
     55 H55        -8.3469    3.8164   60.0124 H       1  ZINC000151850193    0.0900
@<TRIPOS>BOND
     1     1     2    1
     2     1    26    1
     3     1    27    1
     4     1    28    1
     5     2     3    1
     6     2    29    1
     7     2    30    1
     8     3    22    1
     9     3     4    1
    10     3     6    1
    11     4     5    1
    12     4    31    1
    13     4    32    1
    14     5    33    1
    15     5    34    1
    16     5    35    1
    17     6     7    1
    18     6     8    1
    19     6    21    1
    20     8     9   am
    21     8    36    1
    22     9    10    2
    23     9    11    1
    24    11    12    1
    25    11    37    1
    26    11    38    1
    27    12    13    1
    28    12    39    1
    29    12    40    1
    30    13    14   am
    31    13    41    1
    32    14    15    2
    33    14    16    1
    34    16    17    1
    35    17    18    1
    36    17    19    1
    37    17    20    1
    38    18    42    1
    39    18    43    1
    40    18    44    1
    41    19    45    1
    42    19    46    1
    43    19    47    1
    44    20    48    1
    45    20    49    1
    46    20    50    1
    47    21    22    1
    48    21    51    1
    49    21    52    1
    50    22    23    1
    51    22    24    1
    52    24    25    1
    53    25    53    1
    54    25    54    1
    55    25    55    1
@<TRIPOS>SUBSTRUCTURE
     1 ZINC000151850193        1 TEMP              0 ****  ****    0 ROOT


##########                                Name:    ZINC000549381790
##########                DOCK_Rotatable_Bonds:                   7
##########                         Heavy_Atoms:                  23
##########                    Molecular_Weight:             337.846
##########                DOCK_Rotatable_Bonds:                   7
##########                       Formal_Charge:           0.0300006
##########                     HBond_Acceptors:                   5
##########                        HBond_Donors:                   0
##########                         Heavy_Atoms:                  23
##########                          Grid_Score:          -22.983837
##########                     Grid_vdw_energy:          -22.218302
##########                      Grid_es_energy:           -0.765534
##########           Internal_energy_repulsive:           95.060768

@<TRIPOS>MOLECULE
ZINC000549381790
 47 49 1 0 0
SMALL
USER_CHARGES


@<TRIPOS>ATOM
      1 C1        -15.1667    0.3806   59.2699 C.3     1  ZINC000549381790   -0.1400
      2 C2        -15.1837   -1.1446   59.1509 C.3     1  ZINC000549381790    0.1500
      3 H3        -15.8494   -1.5626   59.9060 H       1  ZINC000549381790    0.0700
      4 C4        -15.6733   -1.5456   57.7559 C.3     1  ZINC000549381790   -0.1300
      5 C5        -15.5563   -3.0630   57.5950 C.3     1  ZINC000549381790   -0.1200
      6 C6        -14.0902   -3.4805   57.7308 C.3     1  ZINC000549381790   -0.1400
      7 C7        -13.5826   -3.1015   59.1255 C.3     1  ZINC000549381790    0.1000
      8 N8        -13.8254   -1.6690   59.3473 N.am    1  ZINC000549381790   -0.6100
      9 C9        -12.8202   -0.8516   59.7185 C.2     1  ZINC000549381790    0.5200
     10 O10       -13.0333    0.3287   59.8983 O.2     1  ZINC000549381790   -0.5000
     11 C11       -11.4313   -1.4043   59.9102 C.3     1  ZINC000549381790    0.0400
     12 O12       -10.4713   -0.3720   59.6756 O.3     1  ZINC000549381790   -0.2800
     13 C13       -10.0822    0.3649   60.7502 C.ar    1  ZINC000549381790    0.1100
     14 C14       -10.4918    1.6842   60.8712 C.ar    1  ZINC000549381790   -0.1700
     15 C15       -10.0970    2.4332   61.9631 C.ar    1  ZINC000549381790   -0.1600
     16 C16        -9.2908    1.8662   62.9381 C.ar    1  ZINC000549381790    0.1100
     17 O17        -8.9022    2.6037   64.0129 O.3     1  ZINC000549381790   -0.3000
     18 C18        -9.8471    2.7501   65.0749 C.3     1  ZINC000549381790    0.0900
     19 C19       -10.5515    4.1024   64.9479 C.3     1  ZINC000549381790   -0.1600
     20 C20       -10.6299    4.9783   66.1999 C.3     1  ZINC000549381790   -0.1700
     21 C21        -9.6887    5.3613   65.0560 C.3     1  ZINC000549381790   -0.1700
     22 C22        -8.8804    0.5455   62.8174 C.ar    1  ZINC000549381790   -0.0300
     23 Cl23       -7.8712   -0.1651   64.0382 Cl      1  ZINC000549381790   -0.0400
     24 C24        -9.2802   -0.2050   61.7281 C.ar    1  ZINC000549381790   -0.1000
     25 H25       -14.4263    0.7905   58.5829 H       1  ZINC000549381790    0.0600
     26 H26       -16.1516    0.7755   59.0204 H       1  ZINC000549381790    0.0500
     27 H27       -14.9103    0.6627   60.2910 H       1  ZINC000549381790    0.0800
     28 H28       -16.7145   -1.2462   57.6359 H       1  ZINC000549381790    0.0800
     29 H29       -15.0628   -1.0515   57.0001 H       1  ZINC000549381790    0.0700
     30 H30       -16.1475   -3.5565   58.3665 H       1  ZINC000549381790    0.0700
     31 H31       -15.9272   -3.3537   56.6122 H       1  ZINC000549381790    0.0700
     32 H32       -14.0047   -4.5583   57.5930 H       1  ZINC000549381790    0.0800
     33 H33       -13.4946   -2.9681   56.9753 H       1  ZINC000549381790    0.0700
     34 H34       -14.1164   -3.6812   59.8787 H       1  ZINC000549381790    0.0800
     35 H35       -12.5141   -3.3059   59.1937 H       1  ZINC000549381790    0.0800
     36 H36       -11.3250   -1.7743   60.9299 H       1  ZINC000549381790    0.0900
     37 H37       -11.2652   -2.2213   59.2081 H       1  ZINC000549381790    0.0900
     38 H38       -11.1194    2.1265   60.1116 H       1  ZINC000549381790    0.1400
     39 H39       -10.4163    3.4607   62.0570 H       1  ZINC000549381790    0.1400
     40 H40       -10.5846    1.9495   65.0182 H       1  ZINC000549381790    0.0700
     41 H41        -9.3284    2.6992   66.0322 H       1  ZINC000549381790    0.0700
     42 H42       -11.3971    4.1292   64.2607 H       1  ZINC000549381790    0.1200
     43 H43       -11.5273    5.5817   66.3365 H       1  ZINC000549381790    0.1000
     44 H44       -10.1797    4.5912   67.1139 H       1  ZINC000549381790    0.1000
     45 H45        -8.6193    5.2261   65.2175 H       1  ZINC000549381790    0.1000
     46 H46        -9.9670    6.2165   64.4402 H       1  ZINC000549381790    0.1000
     47 H47        -8.9612   -1.2325   61.6337 H       1  ZINC000549381790    0.1500
@<TRIPOS>BOND
     1     1     2    1
     2     1    25    1
     3     1    26    1
     4     1    27    1
     5     2     3    1
     6     2     8    1
     7     2     4    1
     8     4     5    1
     9     4    28    1
    10     4    29    1
    11     5     6    1
    12     5    30    1
    13     5    31    1
    14     6     7    1
    15     6    32    1
    16     6    33    1
    17     7     8    1
    18     7    34    1
    19     7    35    1
    20     8     9   am
    21     9    10    2
    22     9    11    1
    23    11    12    1
    24    11    36    1
    25    11    37    1
    26    12    13    1
    27    13    24   ar
    28    13    14   ar
    29    14    15   ar
    30    14    38    1
    31    15    16   ar
    32    15    39    1
    33    16    17    1
    34    16    22   ar
    35    17    18    1
    36    18    19    1
    37    18    40    1
    38    18    41    1
    39    19    21    1
    40    19    20    1
    41    19    42    1
    42    20    21    1
    43    20    43    1
    44    20    44    1
    45    21    45    1
    46    21    46    1
    47    22    23    1
    48    22    24   ar
    49    24    47    1
@<TRIPOS>SUBSTRUCTURE
     1 ZINC000549381790        1 TEMP              0 ****  ****    0 ROOT


##########                                Name:    ZINC000291574087
##########                DOCK_Rotatable_Bonds:                   8
##########                         Heavy_Atoms:                  23
##########                    Molecular_Weight:             387.249
##########                DOCK_Rotatable_Bonds:                   8
##########                       Formal_Charge:          -0.0400007
##########                     HBond_Acceptors:                   6
##########                        HBond_Donors:                   2
##########                         Heavy_Atoms:                  23
##########                          Grid_Score:          -22.983608
##########                     Grid_vdw_energy:          -22.979425
##########                      Grid_es_energy:           -0.004182
##########           Internal_energy_repulsive:           25.492514

@<TRIPOS>MOLECULE
ZINC000291574087
 43 44 1 0 0
SMALL
USER_CHARGES


@<TRIPOS>ATOM
      1 C1         -8.6796    4.2022   54.1828 C.3     1  ZINC000291574087    0.0200
      2 O2         -8.1752    3.1901   53.3091 O.3     1  ZINC000291574087   -0.3700
      3 C3         -7.2002    3.6607   52.3763 C.3     1  ZINC000291574087    0.1400
      4 C4         -6.7603    2.5070   51.4728 C.3     1  ZINC000291574087   -0.1500
      5 C5         -5.9884    4.2043   53.1358 C.3     1  ZINC000291574087    0.0900
      6 N6         -4.7681    3.5788   52.6203 N.am    1  ZINC000291574087   -0.6900
      7 C7         -3.6126    3.6901   53.3052 C.2     1  ZINC000291574087    0.5100
      8 O8         -3.5828    4.3097   54.3482 O.2     1  ZINC000291574087   -0.5100
      9 C9         -2.3691    3.0508   52.7806 C.2     1  ZINC000291574087    0.5100
     10 O10        -2.3845    2.4833   51.7077 O.2     1  ZINC000291574087   -0.4900
     11 N11        -1.2296    3.1042   53.4984 N.am    1  ZINC000291574087   -0.6400
     12 C12        -0.0651    2.5055   53.0071 C.ar    1  ZINC000291574087    0.1300
     13 C13        -0.0564    1.1525   52.6959 C.ar    1  ZINC000291574087   -0.1000
     14 C14         1.0952    0.5637   52.2102 C.ar    1  ZINC000291574087   -0.0400
     15 C15         1.1044   -0.9048   51.8725 C.3     1  ZINC000291574087   -0.1300
     16 C16         2.2398    1.3202   52.0332 C.ar    1  ZINC000291574087   -0.0900
     17 Br17        3.8129    0.5091   51.3670 Br      1  ZINC000291574087   -0.0300
     18 C18         2.2362    2.6693   52.3419 C.ar    1  ZINC000291574087   -0.1000
     19 C19         1.0858    3.2659   52.8237 C.ar    1  ZINC000291574087    0.0700
     20 F20         1.0820    4.5827   53.1253 F       1  ZINC000291574087   -0.1300
     21 C21        -7.8081    4.7746   51.5216 C.3     1  ZINC000291574087   -0.1900
     22 C22        -7.8110    4.5790   50.0042 C.3     1  ZINC000291574087   -0.1700
     23 C23        -9.1181    4.4703   50.7920 C.3     1  ZINC000291574087   -0.1600
     24 H24        -9.4138    3.7650   54.8596 H       1  ZINC000291574087    0.0900
     25 H25        -7.8583    4.6248   54.7617 H       1  ZINC000291574087    0.0400
     26 H26        -9.1514    4.9886   53.5937 H       1  ZINC000291574087    0.0500
     27 H27        -7.6236    2.1197   50.9317 H       1  ZINC000291574087    0.0700
     28 H28        -6.0167    2.8660   50.7613 H       1  ZINC000291574087    0.0800
     29 H29        -6.3272    1.7134   52.0817 H       1  ZINC000291574087    0.0700
     30 H30        -5.9286    5.2841   52.9995 H       1  ZINC000291574087    0.0900
     31 H31        -6.0927    3.9772   54.1968 H       1  ZINC000291574087    0.0800
     32 H32        -4.7917    3.0845   51.7860 H       1  ZINC000291574087    0.4200
     33 H33        -1.2172    3.5577   54.3557 H       1  ZINC000291574087    0.4300
     34 H34        -0.9492    0.5607   52.8336 H       1  ZINC000291574087    0.1600
     35 H35         0.8137   -1.0399   50.8307 H       1  ZINC000291574087    0.0800
     36 H36         2.1061   -1.3066   52.0252 H       1  ZINC000291574087    0.0800
     37 H37         0.4000   -1.4304   52.5173 H       1  ZINC000291574087    0.0800
     38 H38         3.1315    3.2571   52.2030 H       1  ZINC000291574087    0.1500
     39 H39        -7.6654    5.7874   51.8985 H       1  ZINC000291574087    0.1100
     40 H40        -7.6702    5.4632   49.3824 H       1  ZINC000291574087    0.1000
     41 H41        -7.3798    3.6568   49.6148 H       1  ZINC000291574087    0.1000
     42 H42        -9.5468    3.4765   50.9210 H       1  ZINC000291574087    0.1000
     43 H43        -9.8371    5.2829   50.6887 H       1  ZINC000291574087    0.1000
@<TRIPOS>BOND
     1     1     2    1
     2     1    24    1
     3     1    25    1
     4     1    26    1
     5     2     3    1
     6     3     4    1
     7     3     5    1
     8     3    21    1
     9     4    27    1
    10     4    28    1
    11     4    29    1
    12     5     6    1
    13     5    30    1
    14     5    31    1
    15     6     7   am
    16     6    32    1
    17     7     8    2
    18     7     9    1
    19     9    10    2
    20     9    11   am
    21    11    12    1
    22    11    33    1
    23    12    19   ar
    24    12    13   ar
    25    13    14   ar
    26    13    34    1
    27    14    15    1
    28    14    16   ar
    29    15    35    1
    30    15    36    1
    31    15    37    1
    32    16    17    1
    33    16    18   ar
    34    18    19   ar
    35    18    38    1
    36    19    20    1
    37    21    23    1
    38    21    22    1
    39    21    39    1
    40    22    23    1
    41    22    40    1
    42    22    41    1
    43    23    42    1
    44    23    43    1
@<TRIPOS>SUBSTRUCTURE
     1 ZINC000291574087        1 TEMP              0 ****  ****    0 ROOT


##########                                Name:    ZINC000375477402
##########                DOCK_Rotatable_Bonds:                   5
##########                         Heavy_Atoms:                  26
##########                    Molecular_Weight:             378.342
##########                DOCK_Rotatable_Bonds:                   5
##########                       Formal_Charge:         -1.2666e-07
##########                     HBond_Acceptors:                   9
##########                        HBond_Donors:                   1
##########                         Heavy_Atoms:                  26
##########                          Grid_Score:          -22.945454
##########                     Grid_vdw_energy:          -22.816519
##########                      Grid_es_energy:           -0.128936
##########           Internal_energy_repulsive:            7.939725

@<TRIPOS>MOLECULE
ZINC000375477402
 45 47 1 0 0
SMALL
USER_CHARGES


@<TRIPOS>ATOM
      1 O1        -14.2592    0.9900   59.7074 O.2     1  ZINC000375477402   -0.5600
      2 C2        -13.3829    0.6001   60.4547 C.2     1  ZINC000375477402    0.7200
      3 N3        -12.8430   -0.6224   60.2803 N.am    1  ZINC000375477402   -0.7300
      4 C4        -13.3162   -1.4839   59.1939 C.3     1  ZINC000375477402    0.1800
      5 H5        -13.7455   -0.8687   58.4031 H       1  ZINC000375477402    0.1500
      6 C6        -12.1598   -2.2769   58.6416 C.ar    1  ZINC000375477402   -0.1300
      7 C7        -11.1413   -2.6890   59.4802 C.ar    1  ZINC000375477402   -0.0800
      8 C8        -10.0797   -3.4165   58.9752 C.ar    1  ZINC000375477402   -0.0900
      9 C9        -10.0346   -3.7333   57.6306 C.ar    1  ZINC000375477402   -0.1100
     10 C10       -11.0529   -3.3221   56.7882 C.ar    1  ZINC000375477402    0.0800
     11 F11       -11.0096   -3.6314   55.4738 F       1  ZINC000375477402   -0.1200
     12 C12       -12.1204   -2.5974   57.2958 C.ar    1  ZINC000375477402    0.1000
     13 F13       -13.1156   -2.1949   56.4755 F       1  ZINC000375477402   -0.1100
     14 C14       -14.3818   -2.4419   59.7300 C.3     1  ZINC000375477402    0.4400
     15 F15       -13.8271   -3.2411   60.7353 F       1  ZINC000375477402   -0.1600
     16 F16       -15.4491   -1.7056   60.2552 F       1  ZINC000375477402   -0.1700
     17 F17       -14.8436   -3.2553   58.6894 F       1  ZINC000375477402   -0.1800
     18 N18       -12.9476    1.3926   61.4542 N.am    1  ZINC000375477402   -0.6300
     19 C19       -13.4470    2.7469   61.7573 C.3     1  ZINC000375477402    0.1000
     20 C20       -13.1259    2.9635   63.2584 C.3     1  ZINC000375477402   -0.1200
     21 C21       -11.7688    2.2373   63.3918 C.3     1  ZINC000375477402   -0.1100
     22 C22       -11.8995    1.0478   62.4284 C.3     1  ZINC000375477402    0.1400
     23 C23       -10.6340    3.1607   62.9666 C.3     1  ZINC000375477402   -0.1100
     24 C24        -9.2962    2.4396   63.1695 C.3     1  ZINC000375477402   -0.1600
     25 C25        -9.1902    1.9834   64.6272 C.3     1  ZINC000375477402    0.0600
     26 O26       -10.2890    1.1245   64.9394 O.3     1  ZINC000375477402   -0.3800
     27 C27       -11.5695    1.7507   64.8208 C.3     1  ZINC000375477402    0.0800
     28 H28       -12.1411   -0.9319   60.8741 H       1  ZINC000375477402    0.4000
     29 H29       -11.1747   -2.4421   60.5311 H       1  ZINC000375477402    0.1400
     30 H30        -9.2846   -3.7374   59.6319 H       1  ZINC000375477402    0.1500
     31 H31        -9.2046   -4.3014   57.2372 H       1  ZINC000375477402    0.1500
     32 H32       -12.9285    3.4873   61.1481 H       1  ZINC000375477402    0.0700
     33 H33       -14.5223    2.8012   61.5880 H       1  ZINC000375477402    0.0700
     34 H34       -13.0257    4.0244   63.4876 H       1  ZINC000375477402    0.0900
     35 H35       -13.8820    2.4984   63.8909 H       1  ZINC000375477402    0.0800
     36 H36       -12.1792    0.1512   62.9816 H       1  ZINC000375477402    0.0800
     37 H37       -10.9556    0.8864   61.9078 H       1  ZINC000375477402    0.0700
     38 H38       -10.7513    3.4217   61.9149 H       1  ZINC000375477402    0.0700
     39 H39       -10.6551    4.0666   63.5723 H       1  ZINC000375477402    0.0700
     40 H40        -9.2461    1.5721   62.5115 H       1  ZINC000375477402    0.0700
     41 H41        -8.4766    3.1206   62.9402 H       1  ZINC000375477402    0.0800
     42 H42        -8.2545    1.4434   64.7716 H       1  ZINC000375477402    0.1000
     43 H43        -9.2121    2.8539   65.2827 H       1  ZINC000375477402    0.0500
     44 H44       -11.6238    2.5984   65.5038 H       1  ZINC000375477402    0.0600
     45 H45       -12.3498    1.0322   65.0718 H       1  ZINC000375477402    0.1000
@<TRIPOS>BOND
     1     1     2    2
     2     2     3   am
     3     2    18   am
     4     3     4    1
     5     3    28    1
     6     4     5    1
     7     4     6    1
     8     4    14    1
     9     6    12   ar
    10     6     7   ar
    11     7     8   ar
    12     7    29    1
    13     8     9   ar
    14     8    30    1
    15     9    10   ar
    16     9    31    1
    17    10    11    1
    18    10    12   ar
    19    12    13    1
    20    14    15    1
    21    14    16    1
    22    14    17    1
    23    18    22    1
    24    18    19    1
    25    19    20    1
    26    19    32    1
    27    19    33    1
    28    20    21    1
    29    20    34    1
    30    20    35    1
    31    21    27    1
    32    21    22    1
    33    21    23    1
    34    22    36    1
    35    22    37    1
    36    23    24    1
    37    23    38    1
    38    23    39    1
    39    24    25    1
    40    24    40    1
    41    24    41    1
    42    25    26    1
    43    25    42    1
    44    25    43    1
    45    26    27    1
    46    27    44    1
    47    27    45    1
@<TRIPOS>SUBSTRUCTURE
     1 ZINC000375477402        1 TEMP              0 ****  ****    0 ROOT


##########                                Name:    ZINC000464867530
##########                DOCK_Rotatable_Bonds:                   8
##########                         Heavy_Atoms:                  30
##########                    Molecular_Weight:              422.49
##########                DOCK_Rotatable_Bonds:                   8
##########                       Formal_Charge:         -0.00999994
##########                     HBond_Acceptors:                   7
##########                        HBond_Donors:                   0
##########                         Heavy_Atoms:                  30
##########                          Grid_Score:          -22.929468
##########                     Grid_vdw_energy:          -22.025097
##########                      Grid_es_energy:           -0.904371
##########           Internal_energy_repulsive:           31.887678

@<TRIPOS>MOLECULE
ZINC000464867530
 59 62 1 0 0
SMALL
USER_CHARGES


@<TRIPOS>ATOM
      1 C1        -12.8321    0.4907   52.7194 C.3     1  ZINC000464867530   -0.1500
      2 C2        -13.7411    1.2029   53.7233 C.3     1  ZINC000464867530   -0.1400
      3 C3        -13.3304    2.6730   53.8294 C.3     1  ZINC000464867530    0.0900
      4 N4        -12.0006    2.7657   54.4373 N.am    1  ZINC000464867530   -0.6100
      5 C5        -10.8107    2.8493   53.5869 C.3     1  ZINC000464867530    0.0700
      6 C6        -10.4104    4.3157   53.4124 C.3     1  ZINC000464867530    0.4300
      7 F7         -9.1766    4.3874   52.7568 F       1  ZINC000464867530   -0.1700
      8 F8        -11.3813    4.9769   52.6526 F       1  ZINC000464867530   -0.1800
      9 F9        -10.3072    4.9234   54.6682 F       1  ZINC000464867530   -0.1800
     10 C10       -11.8721    2.7742   55.7789 C.2     1  ZINC000464867530    0.5300
     11 O11       -10.7712    2.8511   56.2821 O.2     1  ZINC000464867530   -0.5100
     12 C12       -13.0962    2.6884   56.6537 C.3     1  ZINC000464867530   -0.1200
     13 H13       -13.8852    2.1545   56.1240 H       1  ZINC000464867530    0.1000
     14 C14       -13.5773    4.0995   56.9990 C.3     1  ZINC000464867530   -0.1200
     15 C15       -14.8394    4.0135   57.8602 C.3     1  ZINC000464867530   -0.1300
     16 C16       -14.5132    3.2810   59.1656 C.3     1  ZINC000464867530    0.1000
     17 N17       -13.9146    1.9792   58.8404 N.am    1  ZINC000464867530   -0.6100
     18 C18       -14.4243    0.8418   59.3533 C.2     1  ZINC000464867530    0.5500
     19 O19       -15.3868    0.8866   60.0897 O.2     1  ZINC000464867530   -0.5300
     20 C20       -13.7981   -0.4857   59.0117 C.3     1  ZINC000464867530   -0.1700
     21 H21       -13.6510   -0.6767   57.9487 H       1  ZINC000464867530    0.1300
     22 C22       -14.1433   -1.6812   59.9041 C.3     1  ZINC000464867530   -0.1300
     23 C23       -12.7596   -1.0438   59.9776 C.3     1  ZINC000464867530   -0.0600
     24 C24       -12.3147   -0.2462   61.2148 C.3     1  ZINC000464867530   -0.0900
     25 C25       -10.8083   -0.0367   60.9443 C.3     1  ZINC000464867530   -0.0800
     26 C26       -10.4022   -1.1849   60.0446 C.ar    1  ZINC000464867530   -0.0900
     27 C27        -9.1479   -1.6837   59.7382 C.ar    1  ZINC000464867530   -0.1100
     28 C28        -9.0162   -2.7557   58.8770 C.ar    1  ZINC000464867530   -0.1100
     29 C29       -10.1407   -3.3333   58.3185 C.ar    1  ZINC000464867530   -0.1200
     30 C30       -11.3937   -2.8378   58.6228 C.ar    1  ZINC000464867530   -0.1000
     31 C31       -11.5289   -1.7636   59.4859 C.ar    1  ZINC000464867530   -0.0700
     32 C32       -12.7504    1.9401   57.9450 C.3     1  ZINC000464867530    0.1300
     33 H33       -12.9266    0.9658   51.7430 H       1  ZINC000464867530    0.0600
     34 H34       -11.7976    0.5555   53.0565 H       1  ZINC000464867530    0.0600
     35 H35       -13.1247   -0.5566   52.6438 H       1  ZINC000464867530    0.0600
     36 H36       -14.7756    1.1381   53.3863 H       1  ZINC000464867530    0.0700
     37 H37       -13.6466    0.7278   54.6997 H       1  ZINC000464867530    0.0700
     38 H38       -13.3065    3.1163   52.8340 H       1  ZINC000464867530    0.0900
     39 H39       -14.0508    3.2078   54.4482 H       1  ZINC000464867530    0.0900
     40 H40        -9.9915    2.3021   54.0535 H       1  ZINC000464867530    0.1300
     41 H41       -11.0296    2.4139   52.6119 H       1  ZINC000464867530    0.1200
     42 H42       -12.7969    4.6247   57.5498 H       1  ZINC000464867530    0.0800
     43 H43       -13.8007    4.6420   56.0803 H       1  ZINC000464867530    0.0800
     44 H44       -15.1947    5.0189   58.0863 H       1  ZINC000464867530    0.0900
     45 H45       -15.6122    3.4670   57.3197 H       1  ZINC000464867530    0.0700
     46 H46       -13.8076    3.8719   59.7497 H       1  ZINC000464867530    0.0700
     47 H47       -15.4281    3.1297   59.7382 H       1  ZINC000464867530    0.0900
     48 H48       -14.8233   -1.5073   60.7380 H       1  ZINC000464867530    0.1100
     49 H49       -14.2225   -2.6586   59.4281 H       1  ZINC000464867530    0.1100
     50 H50       -12.8359    0.7096   61.2685 H       1  ZINC000464867530    0.0700
     51 H51       -12.4686   -0.8250   62.1257 H       1  ZINC000464867530    0.0800
     52 H52       -10.6437    0.9153   60.4397 H       1  ZINC000464867530    0.0800
     53 H53       -10.2479   -0.0721   61.8786 H       1  ZINC000464867530    0.0800
     54 H54        -8.2686   -1.2326   60.1739 H       1  ZINC000464867530    0.1200
     55 H55        -8.0357   -3.1418   58.6402 H       1  ZINC000464867530    0.1300
     56 H56       -10.0400   -4.1712   57.6445 H       1  ZINC000464867530    0.1300
     57 H57       -12.2715   -3.2899   58.1852 H       1  ZINC000464867530    0.1200
     58 H58       -12.5025    0.9044   57.7128 H       1  ZINC000464867530    0.1000
     59 H59       -11.9007    2.4216   58.4291 H       1  ZINC000464867530    0.0800
@<TRIPOS>BOND
     1     1     2    1
     2     1    33    1
     3     1    34    1
     4     1    35    1
     5     2     3    1
     6     2    36    1
     7     2    37    1
     8     3     4    1
     9     3    38    1
    10     3    39    1
    11     4     5    1
    12     4    10   am
    13     5     6    1
    14     5    40    1
    15     5    41    1
    16     6     7    1
    17     6     8    1
    18     6     9    1
    19    10    11    2
    20    10    12    1
    21    12    13    1
    22    12    32    1
    23    12    14    1
    24    14    15    1
    25    14    42    1
    26    14    43    1
    27    15    16    1
    28    15    44    1
    29    15    45    1
    30    16    17    1
    31    16    46    1
    32    16    47    1
    33    17    18   am
    34    17    32    1
    35    18    19    2
    36    18    20    1
    37    20    21    1
    38    20    23    1
    39    20    22    1
    40    22    23    1
    41    22    48    1
    42    22    49    1
    43    23    31    1
    44    23    24    1
    45    24    25    1
    46    24    50    1
    47    24    51    1
    48    25    26    1
    49    25    52    1
    50    25    53    1
    51    26    31   ar
    52    26    27   ar
    53    27    28   ar
    54    27    54    1
    55    28    29   ar
    56    28    55    1
    57    29    30   ar
    58    29    56    1
    59    30    31   ar
    60    30    57    1
    61    32    58    1
    62    32    59    1
@<TRIPOS>SUBSTRUCTURE
     1 ZINC000464867530        1 TEMP              0 ****  ****    0 ROOT


##########                                Name:    ZINC000540473851
##########                DOCK_Rotatable_Bonds:                   5
##########                         Heavy_Atoms:                  29
##########                    Molecular_Weight:             411.503
##########                DOCK_Rotatable_Bonds:                   5
##########                       Formal_Charge:           0.0200001
##########                     HBond_Acceptors:                   8
##########                        HBond_Donors:                   0
##########                         Heavy_Atoms:                  29
##########                          Grid_Score:          -22.916016
##########                     Grid_vdw_energy:          -22.726358
##########                      Grid_es_energy:           -0.189657
##########           Internal_energy_repulsive:           63.043114

@<TRIPOS>MOLECULE
ZINC000540473851
 51 54 1 0 0
SMALL
USER_CHARGES


@<TRIPOS>ATOM
      1 C1        -12.8137   -2.1124   57.4064 C.3     1  ZINC000540473851   -0.0800
      2 C2        -11.5237   -2.1608   58.1840 C.2     1  ZINC000540473851    0.1500
      3 C3        -11.4077   -1.6923   59.4657 C.2     1  ZINC000540473851   -0.3100
      4 C4        -12.4790   -1.0878   60.2668 C.2     1  ZINC000540473851    0.6000
      5 O5        -13.6201   -1.4973   60.1645 O.2     1  ZINC000540473851   -0.5100
      6 N6        -12.1985   -0.0791   61.1156 N.am    1  ZINC000540473851   -0.6100
      7 C7        -10.8272    0.4350   61.2502 C.3     1  ZINC000540473851    0.1000
      8 C8        -10.8605    1.9585   61.0886 C.3     1  ZINC000540473851    0.0400
      9 N9        -11.8322    2.5266   62.0326 N.3     1  ZINC000540473851   -0.5300
     10 C10       -11.7713    3.9943   62.0312 C.3     1  ZINC000540473851    0.1200
     11 H11       -12.7111    4.3974   62.4088 H       1  ZINC000540473851    0.0500
     12 C12       -11.5390    4.4939   60.6038 C.3     1  ZINC000540473851   -0.1400
     13 C13       -10.6383    4.4509   62.9138 C.ar    1  ZINC000540473851   -0.0500
     14 C14        -9.6630    3.5534   63.3056 C.ar    1  ZINC000540473851   -0.1000
     15 C15        -8.6228    3.9707   64.1153 C.ar    1  ZINC000540473851   -0.0900
     16 C16        -8.5573    5.2860   64.5338 C.ar    1  ZINC000540473851   -0.1500
     17 C17        -9.5337    6.1863   64.1414 C.ar    1  ZINC000540473851    0.1000
     18 F18        -9.4706    7.4725   64.5498 F       1  ZINC000540473851   -0.1400
     19 C19       -10.5717    5.7685   63.3263 C.ar    1  ZINC000540473851   -0.1500
     20 C20       -13.1935    2.0561   61.7436 C.3     1  ZINC000540473851    0.0400
     21 C21       -13.2569    0.5406   61.9274 C.3     1  ZINC000540473851    0.1200
     22 S22        -9.7417   -1.9458   59.9808 S.3     1  ZINC000540473851    0.2800
     23 C23        -9.3662   -2.6399   58.4646 C.2     1  ZINC000540473851    0.0800
     24 C24        -8.0334   -3.1543   58.0796 C.ar    1  ZINC000540473851    0.3800
     25 N25        -7.0417   -3.1068   58.9598 N.ar    1  ZINC000540473851   -0.5100
     26 C26        -5.8396   -3.5577   58.6477 C.ar    1  ZINC000540473851    0.1600
     27 C27        -5.6217   -4.0852   57.3829 C.ar    1  ZINC000540473851   -0.2100
     28 C28        -6.6807   -4.1199   56.4870 C.ar    1  ZINC000540473851    0.1500
     29 N29        -7.8595   -3.6574   56.8641 N.ar    1  ZINC000540473851   -0.4700
     30 N30       -10.4190   -2.6582   57.6978 N.2     1  ZINC000540473851   -0.4300
     31 H31       -13.3801   -3.0264   57.5847 H       1  ZINC000540473851    0.0900
     32 H32       -13.4006   -1.2525   57.7293 H       1  ZINC000540473851    0.0800
     33 H33       -12.5935   -2.0231   56.3426 H       1  ZINC000540473851    0.0800
     34 H34       -10.4353    0.1797   62.2348 H       1  ZINC000540473851    0.0900
     35 H35       -10.1950   -0.0014   60.4769 H       1  ZINC000540473851    0.0900
     36 H36        -9.8714    2.3678   61.2946 H       1  ZINC000540473851    0.1000
     37 H37       -11.1537    2.2099   60.0694 H       1  ZINC000540473851    0.0400
     38 H38       -10.5993    4.0908   60.2262 H       1  ZINC000540473851    0.0700
     39 H39       -12.3586    4.1636   59.9655 H       1  ZINC000540473851    0.0600
     40 H40       -11.4939    5.5829   60.6028 H       1  ZINC000540473851    0.0600
     41 H41        -9.7136    2.5250   62.9794 H       1  ZINC000540473851    0.1400
     42 H42        -7.8615    3.2684   64.4213 H       1  ZINC000540473851    0.1300
     43 H43        -7.7451    5.6117   65.1667 H       1  ZINC000540473851    0.1300
     44 H44       -11.3335    6.4697   63.0194 H       1  ZINC000540473851    0.1300
     45 H45       -13.8965    2.5360   62.4245 H       1  ZINC000540473851    0.1000
     46 H46       -13.4542    2.3061   60.7152 H       1  ZINC000540473851    0.0400
     47 H47       -14.2309    0.1730   61.6045 H       1  ZINC000540473851    0.1000
     48 H48       -13.0981    0.2921   62.9767 H       1  ZINC000540473851    0.0800
     49 H49        -5.0361   -3.5160   59.3682 H       1  ZINC000540473851    0.1800
     50 H50        -4.6488   -4.4603   57.1018 H       1  ZINC000540473851    0.1600
     51 H51        -6.5441   -4.5240   55.4949 H       1  ZINC000540473851    0.1800
@<TRIPOS>BOND
     1     1     2    1
     2     1    31    1
     3     1    32    1
     4     1    33    1
     5     2    30    1
     6     2     3    2
     7     3     4    1
     8     3    22    1
     9     4     5    2
    10     4     6   am
    11     6    21    1
    12     6     7    1
    13     7     8    1
    14     7    34    1
    15     7    35    1
    16     8     9    1
    17     8    36    1
    18     8    37    1
    19     9    10    1
    20     9    20    1
    21    10    11    1
    22    10    12    1
    23    10    13    1
    24    12    38    1
    25    12    39    1
    26    12    40    1
    27    13    19   ar
    28    13    14   ar
    29    14    15   ar
    30    14    41    1
    31    15    16   ar
    32    15    42    1
    33    16    17   ar
    34    16    43    1
    35    17    18    1
    36    17    19   ar
    37    19    44    1
    38    20    21    1
    39    20    45    1
    40    20    46    1
    41    21    47    1
    42    21    48    1
    43    22    23    1
    44    23    24    1
    45    23    30    2
    46    24    29   ar
    47    24    25   ar
    48    25    26   ar
    49    26    27   ar
    50    26    49    1
    51    27    28   ar
    52    27    50    1
    53    28    29   ar
    54    28    51    1
@<TRIPOS>SUBSTRUCTURE
     1 ZINC000540473851        1 TEMP              0 ****  ****    0 ROOT


##########                                Name:    ZINC000543625960
##########                DOCK_Rotatable_Bonds:                   8
##########                         Heavy_Atoms:                  29
##########                    Molecular_Weight:             416.544
##########                DOCK_Rotatable_Bonds:                   8
##########                       Formal_Charge:           -0.010001
##########                     HBond_Acceptors:                   8
##########                        HBond_Donors:                   2
##########                         Heavy_Atoms:                  29
##########                          Grid_Score:          -22.835024
##########                     Grid_vdw_energy:          -22.697439
##########                      Grid_es_energy:           -0.137585
##########           Internal_energy_repulsive:           49.537910

@<TRIPOS>MOLECULE
ZINC000543625960
 57 59 1 0 0
SMALL
USER_CHARGES


@<TRIPOS>ATOM
      1 C1        -14.1025   -3.3821   57.8723 C.3     1  ZINC000543625960   -0.1500
      2 C2        -14.4222   -2.9724   56.4333 C.3     1  ZINC000543625960   -0.1300
      3 C3        -14.9308   -1.5295   56.4149 C.3     1  ZINC000543625960    0.1500
      4 H4        -14.1642   -0.8688   56.8197 H       1  ZINC000543625960    0.0800
      5 C5        -16.1970   -1.4240   57.2673 C.3     1  ZINC000543625960   -0.1700
      6 N6        -15.2358   -1.1367   55.0369 N.am    1  ZINC000543625960   -1.1100
      7 S7        -14.0638   -0.4430   54.0949 S.o2    1  ZINC000543625960    2.7000
      8 O8        -12.9482   -1.3224   54.1299 O.2     1  ZINC000543625960   -0.9600
      9 O9        -14.7017   -0.0443   52.8894 O.2     1  ZINC000543625960   -0.9500
     10 C10       -13.5551    1.0384   54.9021 C.ar    1  ZINC000543625960   -0.6600
     11 C11       -13.6933    2.2561   54.2619 C.ar    1  ZINC000543625960   -0.0400
     12 C12       -13.2951    3.4210   54.8920 C.ar    1  ZINC000543625960   -0.1200
     13 C13       -12.7581    3.3713   56.1633 C.ar    1  ZINC000543625960   -0.0600
     14 C14       -12.6184    2.1498   56.8092 C.ar    1  ZINC000543625960    0.1500
     15 N15       -12.0745    2.0960   58.0976 N.am    1  ZINC000543625960   -0.6800
     16 C16       -10.8471    2.6006   58.3324 C.2     1  ZINC000543625960    0.7200
     17 O17       -10.2123    3.1026   57.4250 O.2     1  ZINC000543625960   -0.5600
     18 N18       -10.3232    2.5488   59.5732 N.am    1  ZINC000543625960   -0.6300
     19 C19        -8.9981    3.0605   59.9682 C.3     1  ZINC000543625960    0.0900
     20 C20        -9.1175    3.3390   61.4874 C.3     1  ZINC000543625960   -0.1000
     21 H21        -8.1412    3.2967   61.9703 H       1  ZINC000543625960    0.1000
     22 C22        -9.7962    4.6856   61.7463 C.3     1  ZINC000543625960   -0.1500
     23 C23       -10.0183    2.1634   61.9499 C.3     1  ZINC000543625960   -0.1200
     24 C24       -10.9808    1.9786   60.7579 C.3     1  ZINC000543625960    0.2000
     25 H25       -11.9181    2.4992   60.9543 H       1  ZINC000543625960    0.0900
     26 C26       -11.2463    0.5119   60.5361 C.ar    1  ZINC000543625960   -0.1400
     27 C27       -10.2974   -0.2876   59.9179 C.ar    1  ZINC000543625960   -0.0600
     28 C28       -10.5848   -1.6318   59.7352 C.ar    1  ZINC000543625960   -0.1700
     29 C29       -11.7988   -2.1264   60.1723 C.ar    1  ZINC000543625960    0.1000
     30 N30       -12.6781   -1.3361   60.7568 N.ar    1  ZINC000543625960   -0.4800
     31 C31       -12.4367   -0.0545   60.9518 C.ar    1  ZINC000543625960    0.1200
     32 C32       -13.0238    0.9826   56.1760 C.ar    1  ZINC000543625960   -0.0500
     33 H33       -13.7402   -4.4101   57.8854 H       1  ZINC000543625960    0.0600
     34 H34       -13.3355   -2.7214   58.2764 H       1  ZINC000543625960    0.0600
     35 H35       -15.0040   -3.3068   58.4804 H       1  ZINC000543625960    0.0500
     36 H36       -13.5207   -3.0477   55.8252 H       1  ZINC000543625960    0.0700
     37 H37       -15.1892   -3.6331   56.0293 H       1  ZINC000543625960    0.0800
     38 H38       -15.9700   -1.7162   58.2926 H       1  ZINC000543625960    0.0700
     39 H39       -16.5592   -0.3961   57.2542 H       1  ZINC000543625960    0.0700
     40 H40       -16.9636   -2.0847   56.8625 H       1  ZINC000543625960    0.0600
     41 H41       -16.1244   -1.2830   54.6762 H       1  ZINC000543625960    0.4200
     42 H42       -14.1126    2.2976   53.2676 H       1  ZINC000543625960    0.1400
     43 H43       -13.4040    4.3706   54.3892 H       1  ZINC000543625960    0.1400
     44 H44       -12.4468    4.2813   56.6546 H       1  ZINC000543625960    0.1400
     45 H45       -12.5809    1.6956   58.8215 H       1  ZINC000543625960    0.4100
     46 H46        -8.2301    2.3104   59.7793 H       1  ZINC000543625960    0.0700
     47 H47        -8.7711    3.9810   59.4305 H       1  ZINC000543625960    0.0800
     48 H48       -10.7863    4.6871   61.2906 H       1  ZINC000543625960    0.0600
     49 H49        -9.8904    4.8444   62.8206 H       1  ZINC000543625960    0.0600
     50 H50        -9.1952    5.4848   61.3124 H       1  ZINC000543625960    0.0600
     51 H51        -9.4246    1.2640   62.1138 H       1  ZINC000543625960    0.0800
     52 H52       -10.5705    2.4317   62.8505 H       1  ZINC000543625960    0.0900
     53 H53        -9.3569    0.1267   59.5860 H       1  ZINC000543625960    0.1300
     54 H54        -9.8690   -2.2840   59.2569 H       1  ZINC000543625960    0.1400
     55 H55       -12.0303   -3.1721   60.0335 H       1  ZINC000543625960    0.1600
     56 H56       -13.1813    0.5615   61.4341 H       1  ZINC000543625960    0.1400
     57 H57       -12.9165    0.0311   56.6756 H       1  ZINC000543625960    0.1400
@<TRIPOS>BOND
     1     1     2    1
     2     1    33    1
     3     1    34    1
     4     1    35    1
     5     2     3    1
     6     2    36    1
     7     2    37    1
     8     3     4    1
     9     3     5    1
    10     3     6    1
    11     5    38    1
    12     5    39    1
    13     5    40    1
    14     6     7   am
    15     6    41    1
    16     7     8    2
    17     7     9    2
    18     7    10    1
    19    10    32   ar
    20    10    11   ar
    21    11    12   ar
    22    11    42    1
    23    12    13   ar
    24    12    43    1
    25    13    14   ar
    26    13    44    1
    27    14    15    1
    28    14    32   ar
    29    15    16   am
    30    15    45    1
    31    16    17    2
    32    16    18   am
    33    18    24    1
    34    18    19    1
    35    19    20    1
    36    19    46    1
    37    19    47    1
    38    20    21    1
    39    20    22    1
    40    20    23    1
    41    22    48    1
    42    22    49    1
    43    22    50    1
    44    23    24    1
    45    23    51    1
    46    23    52    1
    47    24    25    1
    48    24    26    1
    49    26    31   ar
    50    26    27   ar
    51    27    28   ar
    52    27    53    1
    53    28    29   ar
    54    28    54    1
    55    29    30   ar
    56    29    55    1
    57    30    31   ar
    58    31    56    1
    59    32    57    1
@<TRIPOS>SUBSTRUCTURE
     1 ZINC000543625960        1 TEMP              0 ****  ****    0 ROOT


##########                                Name:    ZINC000876376999
##########                DOCK_Rotatable_Bonds:                   7
##########                         Heavy_Atoms:                  24
##########                    Molecular_Weight:             358.502
##########                DOCK_Rotatable_Bonds:                   7
##########                       Formal_Charge:          -0.0299994
##########                     HBond_Acceptors:                   7
##########                        HBond_Donors:                   2
##########                         Heavy_Atoms:                  24
##########                          Grid_Score:          -22.789606
##########                     Grid_vdw_energy:          -22.237885
##########                      Grid_es_energy:           -0.551722
##########           Internal_energy_repulsive:           39.083092

@<TRIPOS>MOLECULE
ZINC000876376999
 54 56 1 0 0
SMALL
USER_CHARGES


@<TRIPOS>ATOM
      1 C1         -0.2214    1.8116   61.2003 C.3     1  ZINC000876376999   -0.1500
      2 C2          0.4519    2.9038   60.3667 C.3     1  ZINC000876376999   -0.1100
      3 C3         -0.4036    3.2052   59.1346 C.3     1  ZINC000876376999   -0.0700
      4 C4         -0.6540    1.9111   58.3577 C.3     1  ZINC000876376999    0.0900
      5 O5         -1.8507    1.2930   58.8348 O.3     1  ZINC000876376999   -0.5600
      6 C6         -1.7413    3.8039   59.5756 C.3     1  ZINC000876376999   -0.1100
      7 C7         -2.6109    4.0753   58.3458 C.3     1  ZINC000876376999   -0.1400
      8 C8         -1.9038    5.0874   57.4387 C.3     1  ZINC000876376999    0.1100
      9 N9         -0.5588    4.5846   57.1277 N.am    1  ZINC000876376999   -0.6300
     10 C10        -0.1463    4.4719   55.8495 C.2     1  ZINC000876376999    0.7100
     11 O11        -0.8897    4.7876   54.9406 O.2     1  ZINC000876376999   -0.5800
     12 N12         1.0903    4.0092   55.5789 N.am    1  ZINC000876376999   -0.7500
     13 C13         1.5387    3.8866   54.1896 C.3     1  ZINC000876376999    0.1400
     14 C14         1.6518    2.4031   53.8178 C.3     1  ZINC000876376999   -0.1100
     15 C15         0.6740    2.0599   52.7271 C.3     1  ZINC000876376999   -0.1100
     16 C16         1.2461    2.0054   51.3057 C.3     1  ZINC000876376999   -0.5200
     17 H17         0.4943    1.7793   50.5367 H       1  ZINC000876376999    0.1500
     18 C18         1.9916    3.3357   51.0522 C.3     1  ZINC000876376999   -0.1200
     19 C19         3.4010    3.2976   51.6329 C.3     1  ZINC000876376999   -0.1200
     20 C20         3.6893    1.9392   52.3125 C.3     1  ZINC000876376999   -0.5300
     21 H21         4.7530    1.6641   52.2914 H       1  ZINC000876376999    0.1500
     22 C22         3.0966    1.9942   53.7254 C.3     1  ZINC000876376999   -0.1000
     23 S23         2.6209    0.7815   51.3591 S.o2    1  ZINC000876376999    2.3700
     24 O24         2.2583   -0.3297   52.1660 O.2     1  ZINC000876376999   -0.9300
     25 O25         3.1525    0.5853   50.0562 O.2     1  ZINC000876376999   -0.9300
     26 C26         0.3284    4.2073   58.2365 C.3     1  ZINC000876376999    0.1400
     27 H27        -1.1704    2.1828   61.5870 H       1  ZINC000876376999    0.0500
     28 H28        -0.4009    0.9366   60.5757 H       1  ZINC000876376999    0.0600
     29 H29         0.4276    1.5375   62.0320 H       1  ZINC000876376999    0.0500
     30 H30         0.5552    3.8075   60.9673 H       1  ZINC000876376999    0.0600
     31 H31         1.4377    2.5634   60.0500 H       1  ZINC000876376999    0.0700
     32 H32        -0.7606    2.1389   57.2971 H       1  ZINC000876376999    0.0500
     33 H33         0.1873    1.2329   58.5008 H       1  ZINC000876376999    0.0400
     34 H34        -2.0724    0.4659   58.3856 H       1  ZINC000876376999    0.3800
     35 H35        -2.2532    3.1029   60.2348 H       1  ZINC000876376999    0.0700
     36 H36        -1.5631    4.7384   60.1078 H       1  ZINC000876376999    0.0700
     37 H37        -2.7689    3.1455   57.7996 H       1  ZINC000876376999    0.0700
     38 H38        -3.5722    4.4800   58.6621 H       1  ZINC000876376999    0.0800
     39 H39        -2.4708    5.2094   56.5158 H       1  ZINC000876376999    0.0700
     40 H40        -1.8259    6.0459   57.9517 H       1  ZINC000876376999    0.0700
     41 H41         1.6833    3.7572   56.3039 H       1  ZINC000876376999    0.3900
     42 H42         0.8185    4.3723   53.5311 H       1  ZINC000876376999    0.0800
     43 H43         2.5122    4.3642   54.0785 H       1  ZINC000876376999    0.0700
     44 H44         1.2612    1.8701   54.7304 H       1  ZINC000876376999    0.0900
     45 H45         0.2116    1.0839   52.9563 H       1  ZINC000876376999    0.0900
     46 H46        -0.1530    2.7909   52.7443 H       1  ZINC000876376999    0.0900
     47 H47         2.0653    3.4962   49.9721 H       1  ZINC000876376999    0.0800
     48 H48         1.4348    4.1621   51.4841 H       1  ZINC000876376999    0.0900
     49 H49         4.1167    3.4407   50.8175 H       1  ZINC000876376999    0.0800
     50 H50         3.5295    4.1054   52.3475 H       1  ZINC000876376999    0.0900
     51 H51         3.7044    2.6864   54.3338 H       1  ZINC000876376999    0.0900
     52 H52         3.2176    1.0022   54.1950 H       1  ZINC000876376999    0.0900
     53 H53         0.5882    5.0942   58.8145 H       1  ZINC000876376999    0.0600
     54 H54         1.2343    3.7487   57.8399 H       1  ZINC000876376999    0.1000
@<TRIPOS>BOND
     1     1     2    1
     2     1    27    1
     3     1    28    1
     4     1    29    1
     5     2     3    1
     6     2    30    1
     7     2    31    1
     8     3    26    1
     9     3     4    1
    10     3     6    1
    11     4     5    1
    12     4    32    1
    13     4    33    1
    14     5    34    1
    15     6     7    1
    16     6    35    1
    17     6    36    1
    18     7     8    1
    19     7    37    1
    20     7    38    1
    21     8     9    1
    22     8    39    1
    23     8    40    1
    24     9    10   am
    25     9    26    1
    26    10    11    2
    27    10    12   am
    28    12    13    1
    29    12    41    1
    30    13    14    1
    31    13    42    1
    32    13    43    1
    33    14    22    1
    34    14    15    1
    35    14    44    1
    36    15    16    1
    37    15    45    1
    38    15    46    1
    39    16    17    1
    40    16    23    1
    41    16    18    1
    42    18    19    1
    43    18    47    1
    44    18    48    1
    45    19    20    1
    46    19    49    1
    47    19    50    1
    48    20    21    1
    49    20    22    1
    50    20    23    1
    51    22    51    1
    52    22    52    1
    53    23    24    2
    54    23    25    2
    55    26    53    1
    56    26    54    1
@<TRIPOS>SUBSTRUCTURE
     1 ZINC000876376999        1 TEMP              0 ****  ****    0 ROOT


##########                                Name:    ZINC000793092912
##########                DOCK_Rotatable_Bonds:                   4
##########                         Heavy_Atoms:                  26
##########                    Molecular_Weight:               407.2
##########                DOCK_Rotatable_Bonds:                   4
##########                       Formal_Charge:         2.90573e-07
##########                     HBond_Acceptors:                  10
##########                        HBond_Donors:                   1
##########                         Heavy_Atoms:                  26
##########                          Grid_Score:          -22.754696
##########                     Grid_vdw_energy:          -19.413902
##########                      Grid_es_energy:           -3.340794
##########           Internal_energy_repulsive:           10.230915

@<TRIPOS>MOLECULE
ZINC000793092912
 40 43 1 0 0
SMALL
USER_CHARGES


@<TRIPOS>ATOM
      1 C1         -7.6030    3.1711   66.9332 C.3     1  ZINC000793092912   -0.1300
      2 C2         -8.5833    3.2289   65.7598 C.3     1  ZINC000793092912   -0.0800
      3 C3         -8.7887    1.9148   65.0221 C.3     1  ZINC000793092912   -0.1100
      4 C4        -10.2556    1.5612   64.8651 C.3     1  ZINC000793092912    0.1100
      5 N5        -11.0612    2.7209   64.5220 N.am    1  ZINC000793092912   -0.5700
      6 C6        -11.8180    2.6795   63.4077 C.2     1  ZINC000793092912    0.5100
      7 O7        -12.4991    3.6360   63.1008 O.2     1  ZINC000793092912   -0.5100
      8 C8        -11.8186    1.4568   62.5504 C.2     1  ZINC000793092912    0.5100
      9 O9        -12.4822    0.4919   62.8699 O.2     1  ZINC000793092912   -0.4900
     10 N10       -11.0823    1.4245   61.4220 N.am    1  ZINC000793092912   -0.6400
     11 C11       -11.0828    0.2793   60.6192 C.ar    1  ZINC000793092912    0.1600
     12 C12       -10.1753   -0.7424   60.8661 C.ar    1  ZINC000793092912   -0.1200
     13 C13       -10.1747   -1.8745   60.0736 C.ar    1  ZINC000793092912   -0.0600
     14 C14       -11.0786   -1.9933   59.0304 C.ar    1  ZINC000793092912    0.0200
     15 O15       -11.2798   -2.9890   58.1175 O.3     1  ZINC000793092912   -0.2800
     16 C16       -12.5876   -2.7465   57.5662 C.3     1  ZINC000793092912    0.5700
     17 F17       -12.6274   -3.1116   56.2163 F       1  ZINC000793092912   -0.1100
     18 F18       -13.5627   -3.4405   58.2906 F       1  ZINC000793092912   -0.1500
     19 O19       -12.7619   -1.3247   57.7111 O.3     1  ZINC000793092912   -0.2800
     20 C20       -11.9905   -0.9697   58.7800 C.ar    1  ZINC000793092912    0.0500
     21 C21       -11.9948    0.1612   59.5780 C.ar    1  ZINC000793092912   -0.0900
     22 C22       -11.0806    3.9250   65.3389 C.3     1  ZINC000793092912    0.1100
     23 C23        -9.6843    4.2739   65.8325 C.3     1  ZINC000793092912   -0.1200
     24 H24        -9.6621    4.9008   66.7239 H       1  ZINC000793092912    0.1400
     25 C25        -8.5254    4.4816   64.8692 C.3     1  ZINC000793092912    0.0000
     26 Cl26       -7.3210    5.7597   65.2770 Cl      1  ZINC000793092912   -0.0800
     27 Cl27       -8.8511    4.2499   63.1109 Cl      1  ZINC000793092912   -0.0900
     28 H28        -8.1488    2.9584   67.8525 H       1  ZINC000793092912    0.0800
     29 H29        -6.8699    2.3841   66.7556 H       1  ZINC000793092912    0.0700
     30 H30        -7.0921    4.1291   67.0273 H       1  ZINC000793092912    0.0700
     31 H31        -8.3363    1.9908   64.0334 H       1  ZINC000793092912    0.0900
     32 H32        -8.2910    1.1181   65.5753 H       1  ZINC000793092912    0.1000
     33 H33       -10.3577    0.8135   64.0786 H       1  ZINC000793092912    0.1100
     34 H34       -10.6210    1.1403   65.8018 H       1  ZINC000793092912    0.0800
     35 H35       -10.5519    2.1955   61.1667 H       1  ZINC000793092912    0.4300
     36 H36        -9.4690   -0.6521   61.6782 H       1  ZINC000793092912    0.1500
     37 H37        -9.4681   -2.6679   60.2676 H       1  ZINC000793092912    0.1500
     38 H38       -12.7045    0.9530   59.3890 H       1  ZINC000793092912    0.1600
     39 H39       -11.4507    4.7570   64.7397 H       1  ZINC000793092912    0.1400
     40 H40       -11.7492    3.7712   66.1859 H       1  ZINC000793092912    0.1000
@<TRIPOS>BOND
     1     1     2    1
     2     1    28    1
     3     1    29    1
     4     1    30    1
     5     2    23    1
     6     2    25    1
     7     2     3    1
     8     3     4    1
     9     3    31    1
    10     3    32    1
    11     4     5    1
    12     4    33    1
    13     4    34    1
    14     5     6   am
    15     5    22    1
    16     6     7    2
    17     6     8    1
    18     8     9    2
    19     8    10   am
    20    10    11    1
    21    10    35    1
    22    11    21   ar
    23    11    12   ar
    24    12    13   ar
    25    12    36    1
    26    13    14   ar
    27    13    37    1
    28    14    20   ar
    29    14    15    1
    30    15    16    1
    31    16    17    1
    32    16    18    1
    33    16    19    1
    34    19    20    1
    35    20    21   ar
    36    21    38    1
    37    22    23    1
    38    22    39    1
    39    22    40    1
    40    23    24    1
    41    23    25    1
    42    25    26    1
    43    25    27    1
@<TRIPOS>SUBSTRUCTURE
     1 ZINC000793092912        1 TEMP              0 ****  ****    0 ROOT


##########                                Name:    ZINC000550782577
##########                DOCK_Rotatable_Bonds:                   5
##########                         Heavy_Atoms:                  25
##########                    Molecular_Weight:              338.45
##########                DOCK_Rotatable_Bonds:                   5
##########                       Formal_Charge:         -0.00999954
##########                     HBond_Acceptors:                   4
##########                        HBond_Donors:                   0
##########                         Heavy_Atoms:                  25
##########                          Grid_Score:          -22.663549
##########                     Grid_vdw_energy:          -22.692930
##########                      Grid_es_energy:            0.029382
##########           Internal_energy_repulsive:           19.554260

@<TRIPOS>MOLECULE
ZINC000550782577
 51 53 1 0 0
SMALL
USER_CHARGES


@<TRIPOS>ATOM
      1 C1        -15.3159   -3.0960   56.8130 C.3     1  ZINC000550782577    0.0700
      2 N2        -14.5351   -1.8869   57.0863 N.am    1  ZINC000550782577   -0.5900
      3 C3        -15.0498   -0.6740   56.8031 C.2     1  ZINC000550782577    0.5800
      4 O4        -16.1619   -0.5831   56.3210 O.2     1  ZINC000550782577   -0.5400
      5 C5        -14.2612    0.5469   57.0789 C.ar    1  ZINC000550782577    0.0300
      6 C6        -14.5527    1.3168   58.2042 C.ar    1  ZINC000550782577   -0.0600
      7 C7        -13.8083    2.4565   58.4518 C.ar    1  ZINC000550782577   -0.1200
      8 C8        -12.7917    2.7909   57.5617 C.ar    1  ZINC000550782577    0.1100
      9 O9        -12.0370    3.9000   57.7668 O.3     1  ZINC000550782577   -0.3000
     10 C10       -10.7435    3.7072   58.3429 C.3     1  ZINC000550782577    0.1000
     11 C11       -10.6850    2.3352   59.0173 C.3     1  ZINC000550782577   -0.2000
     12 C12        -9.6802    3.7818   57.2453 C.3     1  ZINC000550782577   -0.1400
     13 C13       -10.4806    4.7984   59.3827 C.3     1  ZINC000550782577   -0.2000
     14 C14       -12.5578    1.9737   56.4583 C.ar    1  ZINC000550782577   -0.0100
     15 N15       -13.2794    0.8952   56.2550 N.ar    1  ZINC000550782577   -0.4100
     16 C16       -13.1946   -1.9963   57.6673 C.3     1  ZINC000550782577    0.1400
     17 H17       -12.7444   -1.0064   57.7401 H       1  ZINC000550782577    0.1100
     18 C18       -13.2864   -2.6257   59.0622 C.3     1  ZINC000550782577   -0.1300
     19 C19       -11.9203   -2.5078   59.7350 C.3     1  ZINC000550782577   -0.0800
     20 C20       -10.8373   -3.0340   58.8299 C.ar    1  ZINC000550782577   -0.0800
     21 C21        -9.6139   -3.3541   59.4037 C.ar    1  ZINC000550782577   -0.1200
     22 C22        -8.5799   -3.8353   58.6274 C.ar    1  ZINC000550782577   -0.1200
     23 C23        -8.7619   -3.9998   57.2671 C.ar    1  ZINC000550782577   -0.1200
     24 C24        -9.9775   -3.6845   56.6954 C.ar    1  ZINC000550782577   -0.1200
     25 C25       -11.0206   -3.2034   57.4757 C.ar    1  ZINC000550782577   -0.0700
     26 C26       -12.3250   -2.8935   56.7888 C.3     1  ZINC000550782577   -0.0900
     27 H27       -15.1940   -3.3787   55.7674 H       1  ZINC000550782577    0.0600
     28 H28       -14.9657   -3.9068   57.4518 H       1  ZINC000550782577    0.0600
     29 H29       -16.3690   -2.9022   57.0166 H       1  ZINC000550782577    0.1100
     30 H30       -15.3493    1.0275   58.8736 H       1  ZINC000550782577    0.1600
     31 H31       -14.0114    3.0725   59.3153 H       1  ZINC000550782577    0.1500
     32 H32       -10.4549    1.5736   58.2723 H       1  ZINC000550782577    0.0700
     33 H33        -9.9098    2.3398   59.7836 H       1  ZINC000550782577    0.0800
     34 H34       -11.6486    2.1147   59.4767 H       1  ZINC000550782577    0.0800
     35 H35        -9.7219    4.7593   56.7648 H       1  ZINC000550782577    0.0700
     36 H36        -8.6936    3.6347   57.6848 H       1  ZINC000550782577    0.0800
     37 H37        -9.8675    3.0045   56.5045 H       1  ZINC000550782577    0.0700
     38 H38       -11.2354    4.7423   60.1670 H       1  ZINC000550782577    0.0800
     39 H39        -9.4921    4.6540   59.8188 H       1  ZINC000550782577    0.0800
     40 H40       -10.5269    5.7761   58.9031 H       1  ZINC000550782577    0.0700
     41 H41       -11.7706    2.2276   55.7640 H       1  ZINC000550782577    0.1900
     42 H42       -14.0340   -2.0981   59.6545 H       1  ZINC000550782577    0.0700
     43 H43       -13.5624   -3.6765   58.9734 H       1  ZINC000550782577    0.0700
     44 H44       -11.7211   -1.4607   59.9629 H       1  ZINC000550782577    0.0800
     45 H45       -11.9251   -3.0821   60.6615 H       1  ZINC000550782577    0.0800
     46 H46        -9.4707   -3.2250   60.4664 H       1  ZINC000550782577    0.1200
     47 H47        -7.6313   -4.0824   59.0809 H       1  ZINC000550782577    0.1200
     48 H48        -7.9553   -4.3734   56.6537 H       1  ZINC000550782577    0.1200
     49 H49       -10.1187   -3.8129   55.6325 H       1  ZINC000550782577    0.1200
     50 H50       -12.8562   -3.8241   56.5892 H       1  ZINC000550782577    0.0800
     51 H51       -12.1228   -2.3864   55.8453 H       1  ZINC000550782577    0.0800
@<TRIPOS>BOND
     1     1     2    1
     2     1    27    1
     3     1    28    1
     4     1    29    1
     5     2     3   am
     6     2    16    1
     7     3     4    2
     8     3     5    1
     9     5    15   ar
    10     5     6   ar
    11     6     7   ar
    12     6    30    1
    13     7     8   ar
    14     7    31    1
    15     8     9    1
    16     8    14   ar
    17     9    10    1
    18    10    11    1
    19    10    12    1
    20    10    13    1
    21    11    32    1
    22    11    33    1
    23    11    34    1
    24    12    35    1
    25    12    36    1
    26    12    37    1
    27    13    38    1
    28    13    39    1
    29    13    40    1
    30    14    15   ar
    31    14    41    1
    32    16    17    1
    33    16    26    1
    34    16    18    1
    35    18    19    1
    36    18    42    1
    37    18    43    1
    38    19    20    1
    39    19    44    1
    40    19    45    1
    41    20    25   ar
    42    20    21   ar
    43    21    22   ar
    44    21    46    1
    45    22    23   ar
    46    22    47    1
    47    23    24   ar
    48    23    48    1
    49    24    25   ar
    50    24    49    1
    51    25    26    1
    52    26    50    1
    53    26    51    1
@<TRIPOS>SUBSTRUCTURE
     1 ZINC000550782577        1 TEMP              0 ****  ****    0 ROOT


##########                                Name:    ZINC000417533280
##########                DOCK_Rotatable_Bonds:                   9
##########                         Heavy_Atoms:                  26
##########                    Molecular_Weight:             367.439
##########                DOCK_Rotatable_Bonds:                   9
##########                       Formal_Charge:         -0.00999999
##########                     HBond_Acceptors:                   7
##########                        HBond_Donors:                   2
##########                         Heavy_Atoms:                  26
##########                          Grid_Score:          -22.662178
##########                     Grid_vdw_energy:          -22.733467
##########                      Grid_es_energy:            0.071289
##########           Internal_energy_repulsive:           18.368998

@<TRIPOS>MOLECULE
ZINC000417533280
 53 54 1 0 0
SMALL
USER_CHARGES


@<TRIPOS>ATOM
      1 C1        -14.8669    0.6209   67.2989 C.3     1  ZINC000417533280   -0.1600
      2 C2        -14.2473    2.0095   67.4683 C.3     1  ZINC000417533280   -0.1200
      3 C3        -14.4383    2.8137   66.1808 C.3     1  ZINC000417533280   -0.1200
      4 C4        -13.8191    4.2026   66.3504 C.3     1  ZINC000417533280   -0.1300
      5 C5        -12.3249    4.0620   66.6477 C.3     1  ZINC000417533280    0.1200
      6 N6        -11.6691    3.3680   65.5367 N.am    1  ZINC000417533280   -0.7300
      7 C7        -10.3803    3.6319   65.2440 C.2     1  ZINC000417533280    0.5200
      8 O8         -9.7629    4.4428   65.9015 O.2     1  ZINC000417533280   -0.5400
      9 C9         -9.7062    2.9193   64.0999 C.3     1  ZINC000417533280   -0.1100
     10 C10       -10.0060    1.4209   64.1849 C.3     1  ZINC000417533280   -0.1300
     11 C11        -9.2911    0.6955   63.0406 C.3     1  ZINC000417533280    0.1300
     12 N12        -9.6823    1.3179   61.7686 N.am    1  ZINC000417533280   -0.6200
     13 C13       -10.1804    0.5711   60.7632 C.2     1  ZINC000417533280    0.7100
     14 O14       -10.5005    1.0981   59.7153 O.2     1  ZINC000417533280   -0.5600
     15 N15       -10.3237   -0.7599   60.9195 N.am    1  ZINC000417533280   -0.6800
     16 C16       -10.8413   -1.5360   59.8748 C.ar    1  ZINC000417533280    0.1900
     17 C17       -12.1831   -1.4356   59.5336 C.ar    1  ZINC000417533280   -0.1100
     18 C18       -12.6929   -2.2012   58.5025 C.ar    1  ZINC000417533280   -0.1100
     19 C19       -11.8671   -3.0687   57.8092 C.ar    1  ZINC000417533280    0.0500
     20 F20       -12.3677   -3.8160   56.8011 F       1  ZINC000417533280   -0.1300
     21 C21       -10.5259   -3.1712   58.1478 C.ar    1  ZINC000417533280    0.0900
     22 F22        -9.7210   -4.0184   57.4700 F       1  ZINC000417533280   -0.1200
     23 C23       -10.0116   -2.4024   59.1757 C.ar    1  ZINC000417533280   -0.1300
     24 C24        -8.5544   -2.5128   59.5439 C.3     1  ZINC000417533280   -0.1200
     25 C25        -9.5207    2.7699   61.6133 C.3     1  ZINC000417533280    0.1100
     26 C26       -10.2330    3.4722   62.7737 C.3     1  ZINC000417533280   -0.1200
     27 H27       -15.9316    0.7214   67.0879 H       1  ZINC000417533280    0.0500
     28 H28       -14.3799    0.1040   66.4720 H       1  ZINC000417533280    0.0500
     29 H29       -14.7308    0.0480   68.2161 H       1  ZINC000417533280    0.0500
     30 H30       -14.7343    2.5264   68.2952 H       1  ZINC000417533280    0.0600
     31 H31       -13.1826    1.9090   67.6793 H       1  ZINC000417533280    0.0600
     32 H32       -13.9508    2.2971   65.3541 H       1  ZINC000417533280    0.0700
     33 H33       -15.5029    2.9139   65.9695 H       1  ZINC000417533280    0.0700
     34 H34       -13.9548    4.7754   65.4330 H       1  ZINC000417533280    0.0700
     35 H35       -14.3070    4.7193   67.1769 H       1  ZINC000417533280    0.0700
     36 H36       -11.8839    5.0514   66.7692 H       1  ZINC000417533280    0.0700
     37 H37       -12.1894    3.4887   67.5649 H       1  ZINC000417533280    0.0700
     38 H38       -12.1625    2.7186   65.0116 H       1  ZINC000417533280    0.4000
     39 H39        -8.6294    3.0778   64.1573 H       1  ZINC000417533280    0.1000
     40 H40        -9.6514    1.0327   65.1397 H       1  ZINC000417533280    0.0800
     41 H41       -11.0809    1.2597   64.1027 H       1  ZINC000417533280    0.0800
     42 H42        -8.2123    0.7796   63.1721 H       1  ZINC000417533280    0.0700
     43 H43        -9.5799   -0.3555   63.0373 H       1  ZINC000417533280    0.1000
     44 H44       -10.0683   -1.1803   61.7555 H       1  ZINC000417533280    0.4100
     45 H45       -12.8286   -0.7593   60.0743 H       1  ZINC000417533280    0.1700
     46 H46       -13.7370   -2.1230   58.2377 H       1  ZINC000417533280    0.1500
     47 H47        -7.9772   -1.7941   58.9621 H       1  ZINC000417533280    0.0800
     48 H48        -8.4312   -2.3028   60.6064 H       1  ZINC000417533280    0.0700
     49 H49        -8.2009   -3.5213   59.3295 H       1  ZINC000417533280    0.0800
     50 H50        -8.4607    3.0233   61.6283 H       1  ZINC000417533280    0.0800
     51 H51        -9.9611    3.0877   60.6682 H       1  ZINC000417533280    0.0800
     52 H52       -11.3058    3.2916   62.7047 H       1  ZINC000417533280    0.0800
     53 H53       -10.0400    4.5437   62.7239 H       1  ZINC000417533280    0.0900
@<TRIPOS>BOND
     1     1     2    1
     2     1    27    1
     3     1    28    1
     4     1    29    1
     5     2     3    1
     6     2    30    1
     7     2    31    1
     8     3     4    1
     9     3    32    1
    10     3    33    1
    11     4     5    1
    12     4    34    1
    13     4    35    1
    14     5     6    1
    15     5    36    1
    16     5    37    1
    17     6     7   am
    18     6    38    1
    19     7     8    2
    20     7     9    1
    21     9    26    1
    22     9    10    1
    23     9    39    1
    24    10    11    1
    25    10    40    1
    26    10    41    1
    27    11    12    1
    28    11    42    1
    29    11    43    1
    30    12    13   am
    31    12    25    1
    32    13    14    2
    33    13    15   am
    34    15    16    1
    35    15    44    1
    36    16    23   ar
    37    16    17   ar
    38    17    18   ar
    39    17    45    1
    40    18    19   ar
    41    18    46    1
    42    19    20    1
    43    19    21   ar
    44    21    22    1
    45    21    23   ar
    46    23    24    1
    47    24    47    1
    48    24    48    1
    49    24    49    1
    50    25    26    1
    51    25    50    1
    52    25    51    1
    53    26    52    1
    54    26    53    1
@<TRIPOS>SUBSTRUCTURE
     1 ZINC000417533280        1 TEMP              0 ****  ****    0 ROOT


##########                                Name:    ZINC000864730443
##########                DOCK_Rotatable_Bonds:                  10
##########                         Heavy_Atoms:                  25
##########                    Molecular_Weight:             356.462
##########                DOCK_Rotatable_Bonds:                  10
##########                       Formal_Charge:           0.0299988
##########                     HBond_Acceptors:                   7
##########                        HBond_Donors:                   2
##########                         Heavy_Atoms:                  25
##########                          Grid_Score:          -22.549835
##########                     Grid_vdw_energy:          -19.246862
##########                      Grid_es_energy:           -3.302973
##########           Internal_energy_repulsive:           19.356899

@<TRIPOS>MOLECULE
ZINC000864730443
 57 58 1 0 0
SMALL
USER_CHARGES


@<TRIPOS>ATOM
      1 C1        -14.5419   -3.5293   56.8267 C.3     1  ZINC000864730443   -0.1800
      2 C2        -14.2622   -2.6086   58.0162 C.3     1  ZINC000864730443    0.1400
      3 C3        -14.9877   -1.2771   57.8122 C.3     1  ZINC000864730443   -0.1800
      4 C4        -14.7625   -3.2701   59.3019 C.3     1  ZINC000864730443   -0.1400
      5 O5        -12.8335   -2.3707   58.1186 O.3     1  ZINC000864730443   -0.3600
      6 C6        -12.3569   -2.0229   59.3289 C.2     1  ZINC000864730443    0.6500
      7 O7        -11.7668   -2.8404   60.0072 O.2     1  ZINC000864730443   -0.5700
      8 N8        -12.5342   -0.7683   59.7879 N.am    1  ZINC000864730443   -0.7100
      9 C9        -12.0140   -0.3894   61.1041 C.3     1  ZINC000864730443    0.1500
     10 C10       -12.3359    1.0815   61.3755 C.3     1  ZINC000864730443   -0.1300
     11 C11       -12.1260    1.3815   62.8373 C.2     1  ZINC000864730443    0.5300
     12 O12       -13.0817    1.5246   63.5702 O.2     1  ZINC000864730443   -0.5300
     13 N13       -10.8764    1.4909   63.3302 N.am    1  ZINC000864730443   -0.7200
     14 C14       -10.6724    1.7826   64.7513 C.3     1  ZINC000864730443    0.1200
     15 C15        -9.1802    1.9858   65.0211 C.3     1  ZINC000864730443   -0.1300
     16 C16        -8.7664    3.3876   64.5688 C.3     1  ZINC000864730443    0.0800
     17 H17        -8.9904    3.5247   63.5109 H       1  ZINC000864730443    0.0800
     18 C18        -9.4927    4.4625   65.4161 C.3     1  ZINC000864730443   -0.1500
     19 C19        -8.5120    5.6588   65.2783 C.3     1  ZINC000864730443   -0.1600
     20 C20        -7.1401    4.9530   65.2212 C.3     1  ZINC000864730443    0.0500
     21 O21        -7.3664    3.5973   64.8131 O.3     1  ZINC000864730443   -0.3800
     22 C22       -11.4172    1.9707   60.5319 C.3     1  ZINC000864730443   -0.1000
     23 C23       -11.8005    3.4371   60.7529 C.3     1  ZINC000864730443   -0.1600
     24 C24       -13.2780    3.6289   60.4007 C.3     1  ZINC000864730443    0.0600
     25 O25       -14.0744    2.7509   61.1989 O.3     1  ZINC000864730443   -0.3700
     26 C26       -13.7927    1.3641   60.9993 C.3     1  ZINC000864730443    0.0800
     27 H27       -14.1856   -3.0580   55.9108 H       1  ZINC000864730443    0.0900
     28 H28       -14.0251   -4.4779   56.9720 H       1  ZINC000864730443    0.0600
     29 H29       -15.6144   -3.7079   56.7499 H       1  ZINC000864730443    0.0700
     30 H30       -16.0602   -1.4557   57.7353 H       1  ZINC000864730443    0.0700
     31 H31       -14.7884   -0.6212   58.6597 H       1  ZINC000864730443    0.0600
     32 H32       -14.6312   -0.8058   56.8963 H       1  ZINC000864730443    0.0900
     33 H33       -14.2457   -4.2188   59.4473 H       1  ZINC000864730443    0.0700
     34 H34       -14.5633   -2.6142   60.1494 H       1  ZINC000864730443    0.0700
     35 H35       -15.8350   -3.4488   59.2250 H       1  ZINC000864730443    0.0800
     36 H36       -13.0063   -0.1160   59.2469 H       1  ZINC000864730443    0.4100
     37 H37       -12.4778   -1.0103   61.8705 H       1  ZINC000864730443    0.0900
     38 H38       -10.9339   -0.5345   61.1233 H       1  ZINC000864730443    0.0800
     39 H39       -10.1121    1.3765   62.7440 H       1  ZINC000864730443    0.4000
     40 H40       -11.2165    2.6887   65.0178 H       1  ZINC000864730443    0.0700
     41 H41       -11.0398    0.9489   65.3497 H       1  ZINC000864730443    0.0700
     42 H42        -8.9857    1.8760   66.0880 H       1  ZINC000864730443    0.0800
     43 H43        -8.6064    1.2416   64.4688 H       1  ZINC000864730443    0.0800
     44 H44       -10.4680    4.7031   64.9930 H       1  ZINC000864730443    0.0900
     45 H45        -9.5844    4.1474   66.4555 H       1  ZINC000864730443    0.0800
     46 H46        -8.7020    6.2122   64.3587 H       1  ZINC000864730443    0.0800
     47 H47        -8.5752    6.3143   66.1469 H       1  ZINC000864730443    0.0800
     48 H48        -6.4968    5.4532   64.4973 H       1  ZINC000864730443    0.0700
     49 H49        -6.6740    4.9707   66.2063 H       1  ZINC000864730443    0.0700
     50 H50       -10.3814    1.8150   60.8339 H       1  ZINC000864730443    0.0800
     51 H51       -11.5328    1.7184   59.4778 H       1  ZINC000864730443    0.0800
     52 H52       -11.6375    3.7028   61.7974 H       1  ZINC000864730443    0.0900
     53 H53       -11.1882    4.0739   60.1143 H       1  ZINC000864730443    0.0800
     54 H54       -13.5674    4.6613   60.5967 H       1  ZINC000864730443    0.1000
     55 H55       -13.4326    3.4018   59.3459 H       1  ZINC000864730443    0.0500
     56 H56       -13.9541    1.1076   59.9522 H       1  ZINC000864730443    0.0700
     57 H57       -14.4530    0.7652   61.6264 H       1  ZINC000864730443    0.1000
@<TRIPOS>BOND
     1     1     2    1
     2     1    27    1
     3     1    28    1
     4     1    29    1
     5     2     3    1
     6     2     4    1
     7     2     5    1
     8     3    30    1
     9     3    31    1
    10     3    32    1
    11     4    33    1
    12     4    34    1
    13     4    35    1
    14     5     6    1
    15     6     7    2
    16     6     8   am
    17     8     9    1
    18     8    36    1
    19     9    10    1
    20     9    37    1
    21     9    38    1
    22    10    26    1
    23    10    11    1
    24    10    22    1
    25    11    12    2
    26    11    13   am
    27    13    14    1
    28    13    39    1
    29    14    15    1
    30    14    40    1
    31    14    41    1
    32    15    16    1
    33    15    42    1
    34    15    43    1
    35    16    17    1
    36    16    21    1
    37    16    18    1
    38    18    19    1
    39    18    44    1
    40    18    45    1
    41    19    20    1
    42    19    46    1
    43    19    47    1
    44    20    21    1
    45    20    48    1
    46    20    49    1
    47    22    23    1
    48    22    50    1
    49    22    51    1
    50    23    24    1
    51    23    52    1
    52    23    53    1
    53    24    25    1
    54    24    54    1
    55    24    55    1
    56    25    26    1
    57    26    56    1
    58    26    57    1
@<TRIPOS>SUBSTRUCTURE
     1 ZINC000864730443        1 TEMP              0 ****  ****    0 ROOT


##########                                Name:    ZINC000545381384
##########                DOCK_Rotatable_Bonds:                   6
##########                         Heavy_Atoms:                  30
##########                    Molecular_Weight:             405.543
##########                DOCK_Rotatable_Bonds:                   6
##########                       Formal_Charge:                0.05
##########                     HBond_Acceptors:                   6
##########                        HBond_Donors:                   1
##########                         Heavy_Atoms:                  30
##########                          Grid_Score:          -22.514328
##########                     Grid_vdw_energy:          -21.367048
##########                      Grid_es_energy:           -1.147280
##########           Internal_energy_repulsive:          140.084900

@<TRIPOS>MOLECULE
ZINC000545381384
 61 64 1 0 0
SMALL
USER_CHARGES


@<TRIPOS>ATOM
      1 C1        -15.9718   -2.3038   56.4120 C.3     1  ZINC000545381384   -0.2000
      2 C2        -14.5954   -2.9478   56.5900 C.3     1  ZINC000545381384    0.0500
      3 N3        -13.9591   -2.4165   57.8027 N.3     1  ZINC000545381384   -0.5300
      4 C4        -14.7725   -2.7048   58.9945 C.3     1  ZINC000545381384    0.0500
      5 C5        -13.9123   -2.4786   60.2374 C.3     1  ZINC000545381384   -0.0700
      6 C6        -13.2575   -1.1197   60.1703 C.ar    1  ZINC000545381384    0.1800
      7 C7        -13.1709   -0.4225   58.9711 C.ar    1  ZINC000545381384   -0.0800
      8 C8        -13.7265   -0.9735   57.6848 C.3     1  ZINC000545381384    0.0900
      9 C9        -12.5564    0.8270   58.9430 C.ar    1  ZINC000545381384   -0.0700
     10 C10       -12.4458    1.5913   57.6823 C.2     1  ZINC000545381384    0.5800
     11 O11       -11.9056    2.6803   57.6771 O.2     1  ZINC000545381384   -0.4800
     12 N12       -12.9440    1.0807   56.5389 N.am    1  ZINC000545381384   -0.6400
     13 C13       -12.8384    1.8003   55.3503 C.2     1  ZINC000545381384    0.3000
     14 C14       -12.2558    3.0215   55.1972 C.2     1  ZINC000545381384   -0.2700
     15 C15       -12.3641    3.3822   53.8517 C.2     1  ZINC000545381384    0.1000
     16 C16       -11.8519    4.6597   53.2381 C.3     1  ZINC000545381384   -0.0300
     17 C17       -10.4137    4.4542   52.7582 C.3     1  ZINC000545381384   -0.0600
     18 C18        -9.8932    5.7516   52.1365 C.3     1  ZINC000545381384   -0.1500
     19 C19        -9.5301    4.0673   53.9458 C.3     1  ZINC000545381384   -0.1400
     20 C20       -10.3797    3.3379   51.7123 C.3     1  ZINC000545381384   -0.1400
     21 N21       -12.9851    2.4228   53.2146 N.2     1  ZINC000545381384   -0.2700
     22 N22       -13.2924    1.4094   54.1315 N.pl3   1  ZINC000545381384   -0.3900
     23 C23       -13.9875    0.1554   53.8308 C.3     1  ZINC000545381384    0.1000
     24 C24       -12.0408    1.3452   60.1560 C.ar    1  ZINC000545381384   -0.0700
     25 C25       -11.4101    2.5947   60.2108 C.ar    1  ZINC000545381384   -0.1100
     26 C26       -10.9299    3.0555   61.3998 C.ar    1  ZINC000545381384   -0.1000
     27 C27       -11.0579    2.2990   62.5630 C.ar    1  ZINC000545381384   -0.1000
     28 C28       -11.6639    1.0809   62.5452 C.ar    1  ZINC000545381384   -0.0900
     29 C29       -12.1727    0.5718   61.3359 C.ar    1  ZINC000545381384    0.1400
     30 N30       -12.7708   -0.6178   61.2867 N.ar    1  ZINC000545381384   -0.4600
     31 H31       -16.5824   -2.5023   57.2929 H       1  ZINC000545381384    0.0600
     32 H32       -15.8556   -1.2274   56.2856 H       1  ZINC000545381384    0.0600
     33 H33       -16.4579   -2.7228   55.5310 H       1  ZINC000545381384    0.0700
     34 H34       -14.7089   -4.0280   56.6827 H       1  ZINC000545381384    0.0900
     35 H35       -13.9734   -2.7209   55.7241 H       1  ZINC000545381384    0.0800
     36 H36       -15.6344   -2.0379   59.0195 H       1  ZINC000545381384    0.0500
     37 H37       -15.1090   -3.7411   58.9660 H       1  ZINC000545381384    0.0900
     38 H38       -14.5399   -2.5345   61.1269 H       1  ZINC000545381384    0.1000
     39 H39       -13.1429   -3.2489   60.2901 H       1  ZINC000545381384    0.1000
     40 H40       -13.0180   -0.7876   56.8776 H       1  ZINC000545381384    0.0900
     41 H41       -14.6679   -0.4740   57.4559 H       1  ZINC000545381384    0.0700
     42 H42       -13.3762    0.2123   56.5432 H       1  ZINC000545381384    0.4100
     43 H43       -11.7927    3.6073   55.9773 H       1  ZINC000545381384    0.1700
     44 H44       -12.4815    4.9342   52.3918 H       1  ZINC000545381384    0.0800
     45 H45       -11.8763    5.4556   53.9824 H       1  ZINC000545381384    0.0800
     46 H46        -9.9174    6.5468   52.8815 H       1  ZINC000545381384    0.0500
     47 H47        -8.8685    5.6051   51.7946 H       1  ZINC000545381384    0.0500
     48 H48       -10.5226    6.0272   51.2903 H       1  ZINC000545381384    0.0800
     49 H49        -9.9009    3.1430   54.3887 H       1  ZINC000545381384    0.0600
     50 H50        -8.5055    3.9209   53.6039 H       1  ZINC000545381384    0.0600
     51 H51        -9.5543    4.8626   54.6909 H       1  ZINC000545381384    0.0600
     52 H52       -11.0092    3.6136   50.8662 H       1  ZINC000545381384    0.0500
     53 H53        -9.3551    3.1915   51.3705 H       1  ZINC000545381384    0.0500
     54 H54       -10.7506    2.4136   52.1553 H       1  ZINC000545381384    0.0500
     55 H55       -13.2585   -0.6079   53.5582 H       1  ZINC000545381384    0.0800
     56 H56       -14.5440   -0.1713   54.7093 H       1  ZINC000545381384    0.0800
     57 H57       -14.6771    0.3119   53.0014 H       1  ZINC000545381384    0.1000
     58 H58       -11.3046    3.1894   59.3155 H       1  ZINC000545381384    0.1300
     59 H59       -10.4438    4.0190   61.4412 H       1  ZINC000545381384    0.1300
     60 H60       -10.6696    2.6856   63.4937 H       1  ZINC000545381384    0.1400
     61 H61       -11.7540    0.5070   63.4556 H       1  ZINC000545381384    0.1400
@<TRIPOS>BOND
     1     1     2    1
     2     1    31    1
     3     1    32    1
     4     1    33    1
     5     2     3    1
     6     2    34    1
     7     2    35    1
     8     3     8    1
     9     3     4    1
    10     4     5    1
    11     4    36    1
    12     4    37    1
    13     5     6    1
    14     5    38    1
    15     5    39    1
    16     6    30   ar
    17     6     7   ar
    18     7     8    1
    19     7     9   ar
    20     8    40    1
    21     8    41    1
    22     9    10    1
    23     9    24   ar
    24    10    11    2
    25    10    12   am
    26    12    13    1
    27    12    42    1
    28    13    22    1
    29    13    14    2
    30    14    15    1
    31    14    43    1
    32    15    16    1
    33    15    21    2
    34    16    17    1
    35    16    44    1
    36    16    45    1
    37    17    18    1
    38    17    19    1
    39    17    20    1
    40    18    46    1
    41    18    47    1
    42    18    48    1
    43    19    49    1
    44    19    50    1
    45    19    51    1
    46    20    52    1
    47    20    53    1
    48    20    54    1
    49    21    22    1
    50    22    23    1
    51    23    55    1
    52    23    56    1
    53    23    57    1
    54    24    29   ar
    55    24    25   ar
    56    25    26   ar
    57    25    58    1
    58    26    27   ar
    59    26    59    1
    60    27    28   ar
    61    27    60    1
    62    28    29   ar
    63    28    61    1
    64    29    30   ar
@<TRIPOS>SUBSTRUCTURE
     1 ZINC000545381384        1 TEMP              0 ****  ****    0 ROOT


##########                                Name:    ZINC001327099466
##########                DOCK_Rotatable_Bonds:                   7
##########                         Heavy_Atoms:                  27
##########                    Molecular_Weight:             374.483
##########                DOCK_Rotatable_Bonds:                   7
##########                       Formal_Charge:           0.0199998
##########                     HBond_Acceptors:                   7
##########                        HBond_Donors:                   1
##########                         Heavy_Atoms:                  27
##########                          Grid_Score:          -22.448307
##########                     Grid_vdw_energy:          -20.264952
##########                      Grid_es_energy:           -2.183355
##########           Internal_energy_repulsive:           14.602950

@<TRIPOS>MOLECULE
ZINC001327099466
 57 60 1 0 0
SMALL
USER_CHARGES


@<TRIPOS>ATOM
      1 O1         -1.4078    6.2009   56.9148 O.2     1  ZINC001327099466   -0.4800
      2 C2         -1.3857    5.4183   55.9872 C.2     1  ZINC001327099466    0.5300
      3 N3         -2.4064    4.5566   55.8080 N.am    1  ZINC001327099466   -0.6000
      4 C4         -3.4888    4.5602   56.6947 C.2     1  ZINC001327099466    0.2900
      5 N5         -4.7537    4.6877   56.3672 N.2     1  ZINC001327099466   -0.3100
      6 N6         -5.5157    4.6397   57.5416 N.pl3   1  ZINC001327099466   -0.3500
      7 C7         -6.9746    4.7443   57.6256 C.3     1  ZINC001327099466    0.1700
      8 C8         -7.6019    4.1524   56.3618 C.3     1  ZINC001327099466   -0.1300
      9 C9         -9.1255    4.2616   56.4496 C.3     1  ZINC001327099466   -0.1200
     10 C10        -9.6224    3.4913   57.6746 C.3     1  ZINC001327099466   -0.1300
     11 C11        -8.9950    4.0831   58.9382 C.3     1  ZINC001327099466   -0.1200
     12 C12        -7.4714    3.9739   58.8505 C.3     1  ZINC001327099466   -0.1300
     13 C13        -4.6710    4.4795   58.5822 C.2     1  ZINC001327099466    0.0700
     14 C14        -3.4128    4.4218   58.0904 C.2     1  ZINC001327099466   -0.2700
     15 C15        -0.2304    5.4145   55.0408 C.2     1  ZINC001327099466    0.5100
     16 O16        -0.3131    5.9978   53.9798 O.2     1  ZINC001327099466   -0.5100
     17 N17         0.9040    4.7630   55.3649 N.am    1  ZINC001327099466   -0.5700
     18 C18         2.0490    4.7502   54.4442 C.3     1  ZINC001327099466    0.0400
     19 C19         2.4645    3.2971   54.1940 C.3     1  ZINC001327099466   -0.1300
     20 C20         2.7285    2.6082   55.5349 C.3     1  ZINC001327099466   -0.1200
     21 C21         1.4466    2.6070   56.3708 C.3     1  ZINC001327099466    0.0800
     22 H22         0.6565    2.0918   55.8245 H       1  ZINC001327099466    0.0700
     23 O23         1.6855    1.9358   57.6096 O.3     1  ZINC001327099466   -0.3500
     24 C24         0.5895    1.9967   58.5245 C.3     1  ZINC001327099466    0.0600
     25 C25         0.5167    0.7935   59.4794 C.3     1  ZINC001327099466   -0.1600
     26 C26         1.4237    1.5931   60.4298 C.3     1  ZINC001327099466   -0.1400
     27 C27         0.8689    2.8633   59.7637 C.3     1  ZINC001327099466   -0.1400
     28 C28         1.0215    4.0570   56.6480 C.3     1  ZINC001327099466    0.0900
     29 H29        -2.3907    3.9339   55.0644 H       1  ZINC001327099466    0.4300
     30 H30        -7.2591    5.7926   57.7157 H       1  ZINC001327099466    0.1000
     31 H31        -7.2480    4.7012   55.4892 H       1  ZINC001327099466    0.0700
     32 H32        -7.3174    3.1040   56.2719 H       1  ZINC001327099466    0.0700
     33 H33        -9.4100    5.3099   56.5397 H       1  ZINC001327099466    0.0700
     34 H34        -9.5724    3.8398   55.5493 H       1  ZINC001327099466    0.0700
     35 H35       -10.7077    3.5690   57.7372 H       1  ZINC001327099466    0.0700
     36 H36        -9.3378    2.4428   57.5845 H       1  ZINC001327099466    0.0700
     37 H37        -9.2795    5.1315   59.0284 H       1  ZINC001327099466    0.0700
     38 H38        -9.3490    3.5343   59.8110 H       1  ZINC001327099466    0.0700
     39 H39        -7.1869    2.9256   58.7604 H       1  ZINC001327099466    0.0700
     40 H40        -7.0244    4.3956   59.7508 H       1  ZINC001327099466    0.0700
     41 H41        -4.9509    4.4064   59.6228 H       1  ZINC001327099466    0.1800
     42 H42        -2.5092    4.2973   58.6687 H       1  ZINC001327099466    0.1700
     43 H43         1.7646    5.2165   53.5009 H       1  ZINC001327099466    0.1600
     44 H44         2.8810    5.2969   54.8882 H       1  ZINC001327099466    0.0700
     45 H45         1.6649    2.7754   53.6682 H       1  ZINC001327099466    0.0700
     46 H46         3.3715    3.2770   53.5899 H       1  ZINC001327099466    0.0900
     47 H47         3.0481    1.5812   55.3587 H       1  ZINC001327099466    0.0800
     48 H48         3.5111    3.1450   56.0711 H       1  ZINC001327099466    0.0800
     49 H49        -0.3575    2.2260   58.0359 H       1  ZINC001327099466    0.0700
     50 H50        -0.4814    0.6122   59.8780 H       1  ZINC001327099466    0.0900
     51 H51         0.9856   -0.1073   59.0834 H       1  ZINC001327099466    0.0700
     52 H52         1.1494    1.4955   61.4802 H       1  ZINC001327099466    0.0700
     53 H53         2.4877    1.4364   60.2528 H       1  ZINC001327099466    0.0800
     54 H54         1.6222    3.6335   59.5971 H       1  ZINC001327099466    0.0800
     55 H55        -0.0329    3.2479   60.2400 H       1  ZINC001327099466    0.0900
     56 H56         1.7706    4.5443   57.2721 H       1  ZINC001327099466    0.0900
     57 H57         0.0578    4.0643   57.1573 H       1  ZINC001327099466    0.1000
@<TRIPOS>BOND
     1     1     2    2
     2     2     3   am
     3     2    15    1
     4     3     4    1
     5     3    29    1
     6     4    14    1
     7     4     5    2
     8     5     6    1
     9     6     7    1
    10     6    13    1
    11     7    12    1
    12     7     8    1
    13     7    30    1
    14     8     9    1
    15     8    31    1
    16     8    32    1
    17     9    10    1
    18     9    33    1
    19     9    34    1
    20    10    11    1
    21    10    35    1
    22    10    36    1
    23    11    12    1
    24    11    37    1
    25    11    38    1
    26    12    39    1
    27    12    40    1
    28    13    14    2
    29    13    41    1
    30    14    42    1
    31    15    16    2
    32    15    17   am
    33    17    28    1
    34    17    18    1
    35    18    19    1
    36    18    43    1
    37    18    44    1
    38    19    20    1
    39    19    45    1
    40    19    46    1
    41    20    21    1
    42    20    47    1
    43    20    48    1
    44    21    22    1
    45    21    23    1
    46    21    28    1
    47    23    24    1
    48    24    27    1
    49    24    25    1
    50    24    49    1
    51    25    26    1
    52    25    50    1
    53    25    51    1
    54    26    27    1
    55    26    52    1
    56    26    53    1
    57    27    54    1
    58    27    55    1
    59    28    56    1
    60    28    57    1
@<TRIPOS>SUBSTRUCTURE
     1 ZINC001327099466        1 TEMP              0 ****  ****    0 ROOT


##########                                Name:    ZINC000616491533
##########                DOCK_Rotatable_Bonds:                   4
##########                         Heavy_Atoms:                  27
##########                    Molecular_Weight:             375.418
##########                DOCK_Rotatable_Bonds:                   4
##########                       Formal_Charge:           0.0299996
##########                     HBond_Acceptors:                   7
##########                        HBond_Donors:                   0
##########                         Heavy_Atoms:                  27
##########                          Grid_Score:          -22.400164
##########                     Grid_vdw_energy:          -21.568338
##########                      Grid_es_energy:           -0.831824
##########           Internal_energy_repulsive:           14.177833

@<TRIPOS>MOLECULE
ZINC000616491533
 50 53 1 0 0
SMALL
USER_CHARGES


@<TRIPOS>ATOM
      1 C1         -9.1549    2.7696   63.0995 C.3     1  ZINC000616491533   -0.1700
      2 C2        -10.5763    2.8991   62.5483 C.3     1  ZINC000616491533    0.1400
      3 H3        -11.2995    2.7595   63.3518 H       1  ZINC000616491533    0.0800
      4 C4        -10.7660    4.2915   61.9069 C.3     1  ZINC000616491533   -0.1200
      5 C5        -10.5468    4.0110   60.4056 C.3     1  ZINC000616491533   -0.0700
      6 C6        -11.1364    2.5974   60.2391 C.3     1  ZINC000616491533    0.0900
      7 N7        -10.7979    1.8955   61.4961 N.am    1  ZINC000616491533   -0.6100
      8 C8        -10.7054    0.5597   61.6489 C.2     1  ZINC000616491533    0.6100
      9 O9        -10.4159    0.0903   62.7327 O.2     1  ZINC000616491533   -0.5200
     10 C10       -10.9551   -0.3325   60.5023 C.2     1  ZINC000616491533   -0.2400
     11 C11       -12.1774   -0.8414   60.1109 C.2     1  ZINC000616491533    0.0700
     12 C12       -13.5046   -0.5875   60.7778 C.3     1  ZINC000616491533    0.3400
     13 F13       -13.3585    0.4176   61.7399 F       1  ZINC000616491533   -0.1900
     14 F14       -14.4386   -0.1823   59.8183 F       1  ZINC000616491533   -0.1600
     15 N15       -11.9651   -1.6054   59.0240 N.pl3   1  ZINC000616491533   -0.2900
     16 C16       -12.9468   -2.3078   58.3118 C.ar    1  ZINC000616491533    0.1300
     17 C17       -13.8281   -3.1448   58.9832 C.ar    1  ZINC000616491533   -0.1000
     18 C18       -14.7946   -3.8356   58.2787 C.ar    1  ZINC000616491533   -0.1000
     19 C19       -14.8847   -3.6947   56.9060 C.ar    1  ZINC000616491533   -0.1000
     20 C20       -14.0084   -2.8621   56.2346 C.ar    1  ZINC000616491533   -0.1000
     21 C21       -13.0438   -2.1638   56.9342 C.ar    1  ZINC000616491533   -0.0900
     22 N22       -10.5983   -1.5803   58.7248 N.2     1  ZINC000616491533   -0.2600
     23 C23        -9.9889   -0.8220   59.5943 C.2     1  ZINC000616491533    0.0700
     24 C24       -11.3089    5.0165   59.5546 C.3     1  ZINC000616491533   -0.1400
     25 C25       -11.0324    4.7370   58.0732 C.3     1  ZINC000616491533    0.0600
     26 O26        -9.6224    4.7710   57.8417 O.3     1  ZINC000616491533   -0.3800
     27 C27        -8.8843    3.7839   58.5651 C.3     1  ZINC000616491533    0.0600
     28 C28        -9.0627    4.0195   60.0691 C.3     1  ZINC000616491533   -0.1500
     29 H29        -8.4378    2.8978   62.2889 H       1  ZINC000616491533    0.0600
     30 H30        -8.9879    3.5354   63.8570 H       1  ZINC000616491533    0.0600
     31 H31        -9.0268    1.7833   63.5456 H       1  ZINC000616491533    0.0800
     32 H32       -11.7742    4.6650   62.0865 H       1  ZINC000616491533    0.0800
     33 H33       -10.0209    4.9936   62.2811 H       1  ZINC000616491533    0.0900
     34 H34       -12.2179    2.6495   60.1144 H       1  ZINC000616491533    0.0800
     35 H35       -10.6790    2.0933   59.3877 H       1  ZINC000616491533    0.0800
     36 H36       -13.8508   -1.5027   61.2581 H       1  ZINC000616491533    0.1400
     37 H37       -13.7578   -3.2557   60.0552 H       1  ZINC000616491533    0.1300
     38 H38       -15.4804   -4.4867   58.8004 H       1  ZINC000616491533    0.1400
     39 H39       -15.6407   -4.2366   56.3572 H       1  ZINC000616491533    0.1300
     40 H40       -14.0812   -2.7541   55.1625 H       1  ZINC000616491533    0.1400
     41 H41       -12.3596   -1.5135   56.4093 H       1  ZINC000616491533    0.1300
     42 H42        -8.9302   -0.6104   59.6196 H       1  ZINC000616491533    0.2100
     43 H43       -12.3772    4.9226   59.7494 H       1  ZINC000616491533    0.0800
     44 H44       -10.9804    6.0260   59.8021 H       1  ZINC000616491533    0.0800
     45 H45       -11.4208    3.7532   57.8097 H       1  ZINC000616491533    0.0500
     46 H46       -11.5199    5.4968   57.4623 H       1  ZINC000616491533    0.1000
     47 H47        -9.2530    2.7915   58.3060 H       1  ZINC000616491533    0.0500
     48 H48        -7.8277    3.8587   58.3079 H       1  ZINC000616491533    0.1000
     49 H49        -8.6336    4.9842   60.3398 H       1  ZINC000616491533    0.0800
     50 H50        -8.5592    3.2278   60.6238 H       1  ZINC000616491533    0.0800
@<TRIPOS>BOND
     1     1     2    1
     2     1    29    1
     3     1    30    1
     4     1    31    1
     5     2     3    1
     6     2     7    1
     7     2     4    1
     8     4     5    1
     9     4    32    1
    10     4    33    1
    11     5    28    1
    12     5     6    1
    13     5    24    1
    14     6     7    1
    15     6    34    1
    16     6    35    1
    17     7     8   am
    18     8     9    2
    19     8    10    1
    20    10    23    1
    21    10    11    2
    22    11    12    1
    23    11    15    1
    24    12    13    1
    25    12    14    1
    26    12    36    1
    27    15    16    1
    28    15    22    1
    29    16    21   ar
    30    16    17   ar
    31    17    18   ar
    32    17    37    1
    33    18    19   ar
    34    18    38    1
    35    19    20   ar
    36    19    39    1
    37    20    21   ar
    38    20    40    1
    39    21    41    1
    40    22    23    2
    41    23    42    1
    42    24    25    1
    43    24    43    1
    44    24    44    1
    45    25    26    1
    46    25    45    1
    47    25    46    1
    48    26    27    1
    49    27    28    1
    50    27    47    1
    51    27    48    1
    52    28    49    1
    53    28    50    1
@<TRIPOS>SUBSTRUCTURE
     1 ZINC000616491533        1 TEMP              0 ****  ****    0 ROOT


##########                                Name:    ZINC000512239524
##########                DOCK_Rotatable_Bonds:                   9
##########                         Heavy_Atoms:                  31
##########                    Molecular_Weight:             424.518
##########                DOCK_Rotatable_Bonds:                   9
##########                       Formal_Charge:          0.00999919
##########                     HBond_Acceptors:                   7
##########                        HBond_Donors:                   1
##########                         Heavy_Atoms:                  31
##########                          Grid_Score:          -22.269995
##########                     Grid_vdw_energy:          -21.743130
##########                      Grid_es_energy:           -0.526864
##########           Internal_energy_repulsive:          157.091400

@<TRIPOS>MOLECULE
ZINC000512239524
 60 63 1 0 0
SMALL
USER_CHARGES


@<TRIPOS>ATOM
      1 C1        -13.7527   -0.9026   60.8794 C.3     1  ZINC000512239524   -0.1600
      2 C2        -13.3242   -0.3708   59.5102 C.3     1  ZINC000512239524    0.2000
      3 H3        -14.1970    0.0067   58.9776 H       1  ZINC000512239524    0.1100
      4 N4        -12.3547    0.7128   59.6889 N.am    1  ZINC000512239524   -0.7400
      5 C5        -12.1704    1.6205   58.7098 C.2     1  ZINC000512239524    0.7100
      6 O6        -12.8089    1.5399   57.6781 O.2     1  ZINC000512239524   -0.5800
      7 N7        -11.2785    2.6174   58.8742 N.am    1  ZINC000512239524   -0.6300
      8 C8        -10.4953    2.7245   60.1127 C.3     1  ZINC000512239524    0.1300
      9 C9         -9.0082    2.7944   59.7512 C.3     1  ZINC000512239524   -0.1100
     10 C10        -8.7811    3.9406   58.7627 C.3     1  ZINC000512239524   -0.1000
     11 C11        -7.3140    4.0340   58.4310 C.2     1  ZINC000512239524    0.5300
     12 O12        -6.8540    3.3728   57.5242 O.2     1  ZINC000512239524   -0.5300
     13 N13        -6.5131    4.8523   59.1420 N.am    1  ZINC000512239524   -0.5800
     14 C14        -5.0872    4.9443   58.8184 C.3     1  ZINC000512239524    0.1500
     15 C15        -4.9200    5.5800   57.4622 C.ar    1  ZINC000512239524   -0.1100
     16 C16        -3.7878    6.3218   57.1815 C.ar    1  ZINC000512239524   -0.0900
     17 C17        -3.6344    6.9048   55.9376 C.ar    1  ZINC000512239524   -0.1200
     18 C18        -4.6128    6.7456   54.9742 C.ar    1  ZINC000512239524   -0.1100
     19 C19        -5.7446    6.0031   55.2546 C.ar    1  ZINC000512239524   -0.1200
     20 C20        -5.8960    5.4165   56.4971 C.ar    1  ZINC000512239524   -0.1100
     21 C21        -7.0684    5.6495   60.2384 C.3     1  ZINC000512239524    0.0700
     22 C22        -6.2880    6.8911   60.6747 C.3     1  ZINC000512239524   -0.1900
     23 C23        -7.5983    7.0443   59.8997 C.3     1  ZINC000512239524   -0.2000
     24 C24        -9.5775    3.6778   57.4826 C.3     1  ZINC000512239524   -0.1400
     25 C25       -11.0666    3.6143   57.8159 C.3     1  ZINC000512239524    0.1100
     26 C26       -12.6926   -1.4839   58.7144 C.ar    1  ZINC000512239524   -0.0800
     27 C27       -11.3628   -1.8251   58.9033 C.ar    1  ZINC000512239524   -0.1400
     28 C28       -10.8175   -2.8519   58.1555 C.ar    1  ZINC000512239524    0.1000
     29 N29       -11.5459   -3.5038   57.2707 N.ar    1  ZINC000512239524   -0.4600
     30 C30       -12.8141   -3.2081   57.0628 C.ar    1  ZINC000512239524    0.0800
     31 C31       -13.4307   -2.1960   57.7780 C.ar    1  ZINC000512239524    0.0600
     32 F32       -14.7303   -1.8979   57.5604 F       1  ZINC000512239524   -0.1200
     33 H33       -14.2095   -0.0976   61.4551 H       1  ZINC000512239524    0.0700
     34 H34       -14.4742   -1.7089   60.7464 H       1  ZINC000512239524    0.0700
     35 H35       -12.8799   -1.2801   61.4119 H       1  ZINC000512239524    0.0600
     36 H36       -11.8453    0.7771   60.5119 H       1  ZINC000512239524    0.3900
     37 H37       -10.7835    3.6277   60.6504 H       1  ZINC000512239524    0.0700
     38 H38       -10.6787    1.8505   60.7377 H       1  ZINC000512239524    0.1000
     39 H39        -8.4224    2.9705   60.6533 H       1  ZINC000512239524    0.0900
     40 H40        -8.7002    1.8538   59.2947 H       1  ZINC000512239524    0.0800
     41 H41        -9.1125    4.8774   59.2106 H       1  ZINC000512239524    0.1000
     42 H42        -4.5828    5.5525   59.5692 H       1  ZINC000512239524    0.0900
     43 H43        -4.6519    3.9452   58.8076 H       1  ZINC000512239524    0.1000
     44 H44        -3.0233    6.4461   57.9341 H       1  ZINC000512239524    0.1300
     45 H45        -2.7501    7.4849   55.7185 H       1  ZINC000512239524    0.1200
     46 H46        -4.4932    7.2017   54.0025 H       1  ZINC000512239524    0.1200
     47 H47        -6.5092    5.8790   54.5021 H       1  ZINC000512239524    0.1200
     48 H48        -6.7803    4.8363   56.7162 H       1  ZINC000512239524    0.1200
     49 H49        -7.5917    5.0863   61.0111 H       1  ZINC000512239524    0.1300
     50 H50        -6.2977    7.1449   61.7347 H       1  ZINC000512239524    0.1100
     51 H51        -5.3615    7.1147   60.1460 H       1  ZINC000512239524    0.1000
     52 H52        -7.5337    7.3687   58.8611 H       1  ZINC000512239524    0.1100
     53 H53        -8.4699    7.3988   60.4498 H       1  ZINC000512239524    0.1000
     54 H54        -9.3969    4.4826   56.7700 H       1  ZINC000512239524    0.0900
     55 H55        -9.2641    2.7288   57.0474 H       1  ZINC000512239524    0.0700
     56 H56       -11.6283    3.3297   56.9263 H       1  ZINC000512239524    0.0800
     57 H57       -11.4042    4.5893   58.1676 H       1  ZINC000512239524    0.0800
     58 H58       -10.7597   -1.2951   59.6257 H       1  ZINC000512239524    0.1400
     59 H59        -9.7818   -3.1233   58.2974 H       1  ZINC000512239524    0.1700
     60 H60       -13.3788   -3.7642   56.3292 H       1  ZINC000512239524    0.1700
@<TRIPOS>BOND
     1     1     2    1
     2     1    33    1
     3     1    34    1
     4     1    35    1
     5     2     3    1
     6     2     4    1
     7     2    26    1
     8     4     5   am
     9     4    36    1
    10     5     6    2
    11     5     7   am
    12     7    25    1
    13     7     8    1
    14     8     9    1
    15     8    37    1
    16     8    38    1
    17     9    10    1
    18     9    39    1
    19     9    40    1
    20    10    11    1
    21    10    24    1
    22    10    41    1
    23    11    12    2
    24    11    13   am
    25    13    14    1
    26    13    21    1
    27    14    15    1
    28    14    42    1
    29    14    43    1
    30    15    20   ar
    31    15    16   ar
    32    16    17   ar
    33    16    44    1
    34    17    18   ar
    35    17    45    1
    36    18    19   ar
    37    18    46    1
    38    19    20   ar
    39    19    47    1
    40    20    48    1
    41    21    23    1
    42    21    22    1
    43    21    49    1
    44    22    23    1
    45    22    50    1
    46    22    51    1
    47    23    52    1
    48    23    53    1
    49    24    25    1
    50    24    54    1
    51    24    55    1
    52    25    56    1
    53    25    57    1
    54    26    31   ar
    55    26    27   ar
    56    27    28   ar
    57    27    58    1
    58    28    29   ar
    59    28    59    1
    60    29    30   ar
    61    30    31   ar
    62    30    60    1
    63    31    32    1
@<TRIPOS>SUBSTRUCTURE
     1 ZINC000512239524        1 TEMP              0 ****  ****    0 ROOT


##########                                Name:    ZINC000643274279
##########                DOCK_Rotatable_Bonds:                   6
##########                         Heavy_Atoms:                  29
##########                    Molecular_Weight:             392.454
##########                DOCK_Rotatable_Bonds:                   6
##########                       Formal_Charge:         -0.00999939
##########                     HBond_Acceptors:                   6
##########                        HBond_Donors:                   2
##########                         Heavy_Atoms:                  29
##########                          Grid_Score:          -22.131844
##########                     Grid_vdw_energy:          -19.340242
##########                      Grid_es_energy:           -2.791600
##########           Internal_energy_repulsive:           32.318714

@<TRIPOS>MOLECULE
ZINC000643274279
 53 56 1 0 0
SMALL
USER_CHARGES


@<TRIPOS>ATOM
      1 O1        -12.4415   -0.0199   61.6252 O.2     1  ZINC000643274279   -0.4900
      2 C2        -11.2699    0.1901   61.8633 C.2     1  ZINC000643274279    0.5100
      3 N3        -10.9244    1.0787   62.8158 N.am    1  ZINC000643274279   -0.6400
      4 C4        -11.9152    1.7628   63.5256 C.ar    1  ZINC000643274279    0.1300
      5 C5        -11.8111    1.8992   64.9054 C.ar    1  ZINC000643274279   -0.1000
      6 C6        -12.7934    2.5648   65.6184 C.ar    1  ZINC000643274279   -0.1000
      7 C7        -13.8806    3.0935   64.9585 C.ar    1  ZINC000643274279   -0.0600
      8 C8        -14.9946    3.7627   65.7443 C.3     1  ZINC000643274279   -0.0900
      9 C9        -15.0052    5.2544   65.4301 C.3     1  ZINC000643274279   -0.1200
     10 C10       -15.8539    5.5598   64.2050 C.3     1  ZINC000643274279   -0.1100
     11 C11       -15.2439    5.1058   62.9030 C.3     1  ZINC000643274279   -0.1600
     12 C12       -15.1329    3.5937   62.8785 C.2     1  ZINC000643274279    0.4100
     13 O13       -15.9579    2.9116   62.3091 O.2     1  ZINC000643274279   -0.4400
     14 C14       -13.9846    2.9842   63.5719 C.ar    1  ZINC000643274279   -0.1300
     15 C15       -12.9973    2.3094   62.8512 C.ar    1  ZINC000643274279   -0.1000
     16 C16       -10.2112   -0.5410   61.1047 C.2     1  ZINC000643274279    0.5200
     17 O17        -9.0449   -0.4132   61.4146 O.2     1  ZINC000643274279   -0.5000
     18 N18       -10.5512   -1.3427   60.0761 N.am    1  ZINC000643274279   -0.5800
     19 C19        -9.6130   -2.1195   59.2456 C.3     1  ZINC000643274279    0.0900
     20 C20       -10.4592   -3.2859   58.6768 C.3     1  ZINC000643274279   -0.1400
     21 C21       -11.8222   -2.5884   58.4258 C.3     1  ZINC000643274279   -0.1200
     22 C22       -11.9198   -1.5923   59.6003 C.3     1  ZINC000643274279    0.1800
     23 H23       -12.5234   -2.0207   60.4005 H       1  ZINC000643274279    0.0900
     24 C24       -12.5375   -0.3015   59.1276 C.ar    1  ZINC000643274279   -0.1000
     25 C25       -13.9083   -0.1309   59.1845 C.ar    1  ZINC000643274279   -0.0900
     26 C26       -14.4770    1.0514   58.7518 C.ar    1  ZINC000643274279   -0.1400
     27 C27       -13.6712    2.0681   58.2603 C.ar    1  ZINC000643274279    0.1100
     28 O28       -14.2282    3.2323   57.8344 O.3     1  ZINC000643274279   -0.5000
     29 C29       -12.2959    1.8946   58.2047 C.ar    1  ZINC000643274279   -0.1400
     30 C30       -11.7317    0.7124   58.6431 C.ar    1  ZINC000643274279   -0.0900
     31 H31        -9.9882    1.2435   63.0087 H       1  ZINC000643274279    0.4200
     32 H32       -10.9597    1.4832   65.4237 H       1  ZINC000643274279    0.1400
     33 H33       -12.7076    2.6690   66.6898 H       1  ZINC000643274279    0.1400
     34 H34       -15.9523    3.3248   65.4632 H       1  ZINC000643274279    0.0800
     35 H35       -14.8259    3.6167   66.8112 H       1  ZINC000643274279    0.0800
     36 H36       -15.4075    5.7960   66.2863 H       1  ZINC000643274279    0.0800
     37 H37       -13.9834    5.5873   65.2476 H       1  ZINC000643274279    0.0700
     38 H38       -16.8215    5.0719   64.3232 H       1  ZINC000643274279    0.0700
     39 H39       -16.0161    6.6365   64.1552 H       1  ZINC000643274279    0.0800
     40 H40       -15.8717    5.4355   62.0752 H       1  ZINC000643274279    0.0900
     41 H41       -14.2509    5.5429   62.7973 H       1  ZINC000643274279    0.0900
     42 H42       -13.0774    2.2105   61.7788 H       1  ZINC000643274279    0.1300
     43 H43        -9.2236   -1.5031   58.4354 H       1  ZINC000643274279    0.0800
     44 H44        -8.7965   -2.5056   59.8558 H       1  ZINC000643274279    0.1000
     45 H45       -10.0338   -3.6591   57.7453 H       1  ZINC000643274279    0.0900
     46 H46       -10.5595   -4.0883   59.4077 H       1  ZINC000643274279    0.0800
     47 H47       -11.8169   -2.0643   57.4702 H       1  ZINC000643274279    0.0800
     48 H48       -12.6380   -3.3102   58.4665 H       1  ZINC000643274279    0.0900
     49 H49       -14.5352   -0.9227   59.5672 H       1  ZINC000643274279    0.1200
     50 H50       -15.5479    1.1839   58.7957 H       1  ZINC000643274279    0.1300
     51 H51       -13.5871    3.8797   57.5105 H       1  ZINC000643274279    0.3900
     52 H52       -11.6666    2.6846   57.8221 H       1  ZINC000643274279    0.1300
     53 H53       -10.6612    0.5769   58.6003 H       1  ZINC000643274279    0.1300
@<TRIPOS>BOND
     1     1     2    2
     2     2     3   am
     3     2    16    1
     4     3     4    1
     5     3    31    1
     6     4    15   ar
     7     4     5   ar
     8     5     6   ar
     9     5    32    1
    10     6     7   ar
    11     6    33    1
    12     7    14   ar
    13     7     8    1
    14     8     9    1
    15     8    34    1
    16     8    35    1
    17     9    10    1
    18     9    36    1
    19     9    37    1
    20    10    11    1
    21    10    38    1
    22    10    39    1
    23    11    12    1
    24    11    40    1
    25    11    41    1
    26    12    13    2
    27    12    14    1
    28    14    15   ar
    29    15    42    1
    30    16    17    2
    31    16    18   am
    32    18    22    1
    33    18    19    1
    34    19    20    1
    35    19    43    1
    36    19    44    1
    37    20    21    1
    38    20    45    1
    39    20    46    1
    40    21    22    1
    41    21    47    1
    42    21    48    1
    43    22    23    1
    44    22    24    1
    45    24    30   ar
    46    24    25   ar
    47    25    26   ar
    48    25    49    1
    49    26    27   ar
    50    26    50    1
    51    27    28    1
    52    27    29   ar
    53    28    51    1
    54    29    30   ar
    55    29    52    1
    56    30    53    1
@<TRIPOS>SUBSTRUCTURE
     1 ZINC000643274279        1 TEMP              0 ****  ****    0 ROOT


##########                                Name:    ZINC000001174632
##########                DOCK_Rotatable_Bonds:                   6
##########                         Heavy_Atoms:                  29
##########                    Molecular_Weight:             385.419
##########                DOCK_Rotatable_Bonds:                   6
##########                       Formal_Charge:           0.0400005
##########                     HBond_Acceptors:                   5
##########                        HBond_Donors:                   1
##########                         Heavy_Atoms:                  29
##########                          Grid_Score:          -22.068151
##########                     Grid_vdw_energy:          -21.585035
##########                      Grid_es_energy:           -0.483117
##########           Internal_energy_repulsive:           20.848364

@<TRIPOS>MOLECULE
ZINC000001174632
 48 51 1 0 0
SMALL
USER_CHARGES


@<TRIPOS>ATOM
      1 C1        -13.8166   -1.8946   60.5149 C.3     1  ZINC000001174632    0.0400
      2 O2        -13.9561   -0.4693   60.7538 O.3     1  ZINC000001174632   -0.3500
      3 C3        -13.2052    0.3544   59.9963 C.2     1  ZINC000001174632    0.5200
      4 O4        -12.4884   -0.1033   59.1284 O.2     1  ZINC000001174632   -0.5200
      5 C5        -13.2534    1.8100   60.2206 C.ar    1  ZINC000001174632   -0.2000
      6 C6        -13.9857    2.3327   61.2892 C.ar    1  ZINC000001174632   -0.0200
      7 C7        -14.0262    3.6952   61.4937 C.ar    1  ZINC000001174632   -0.1800
      8 C8        -13.3440    4.5516   60.6445 C.ar    1  ZINC000001174632   -0.0300
      9 C9        -12.6163    4.0511   59.5839 C.ar    1  ZINC000001174632   -0.1900
     10 C10       -12.5584    2.6804   59.3646 C.ar    1  ZINC000001174632    0.2600
     11 N11       -11.8267    2.1743   58.2984 N.pl3   1  ZINC000001174632   -0.6500
     12 C12       -10.5858    2.6842   58.0150 C.2     1  ZINC000001174632    0.2300
     13 C13        -9.4819    2.6100   58.8426 C.2     1  ZINC000001174632   -0.1800
     14 C14        -9.4403    1.9704   60.1764 C.ar    1  ZINC000001174632   -0.0600
     15 C15        -9.4945    0.5802   60.2876 C.ar    1  ZINC000001174632   -0.0600
     16 C16        -9.4556   -0.0120   61.5325 C.ar    1  ZINC000001174632   -0.1500
     17 C17        -9.3631    0.7725   62.6739 C.ar    1  ZINC000001174632    0.1400
     18 O18        -9.3250    0.1848   63.8992 O.3     1  ZINC000001174632   -0.3200
     19 C19        -9.0965    1.0392   65.0217 C.3     1  ZINC000001174632    0.0300
     20 C20        -9.3090    2.1555   62.5676 C.ar    1  ZINC000001174632   -0.2100
     21 C21        -9.3412    2.7553   61.3261 C.ar    1  ZINC000001174632   -0.0500
     22 C22        -8.3568    3.2739   58.1721 C.2     1  ZINC000001174632    0.4500
     23 O23        -7.2283    3.3989   58.6060 O.2     1  ZINC000001174632   -0.4100
     24 C24        -8.8604    3.7644   56.8595 C.ar    1  ZINC000001174632   -0.1600
     25 C25        -8.2597    4.4515   55.8215 C.ar    1  ZINC000001174632   -0.0500
     26 C26        -8.9988    4.7835   54.6903 C.ar    1  ZINC000001174632   -0.1100
     27 C27       -10.3277    4.4301   54.6014 C.ar    1  ZINC000001174632   -0.0900
     28 C28       -10.9421    3.7391   55.6391 C.ar    1  ZINC000001174632   -0.0800
     29 C29       -10.2145    3.3968   56.7694 C.ar    1  ZINC000001174632   -0.0600
     30 H30       -12.7836   -2.1935   60.6930 H       1  ZINC000001174632    0.0700
     31 H31       -14.4747   -2.4423   61.1896 H       1  ZINC000001174632    0.1100
     32 H32       -14.0868   -2.1183   59.4828 H       1  ZINC000001174632    0.0700
     33 H33       -14.5197    1.6701   61.9541 H       1  ZINC000001174632    0.1400
     34 H34       -14.5933    4.0975   62.3202 H       1  ZINC000001174632    0.1300
     35 H35       -13.3822    5.6175   60.8134 H       1  ZINC000001174632    0.1300
     36 H36       -12.0880    4.7254   58.9261 H       1  ZINC000001174632    0.1300
     37 H37       -12.1933    1.4599   57.7543 H       1  ZINC000001174632    0.4300
     38 H38        -9.5671   -0.0309   59.4000 H       1  ZINC000001174632    0.1300
     39 H39        -9.4974   -1.0877   61.6194 H       1  ZINC000001174632    0.1300
     40 H40        -8.1354    1.5403   64.9072 H       1  ZINC000001174632    0.0600
     41 H41        -9.8903    1.7841   65.0787 H       1  ZINC000001174632    0.0600
     42 H42        -9.0898    0.4448   65.9353 H       1  ZINC000001174632    0.1000
     43 H43        -9.2375    2.7624   63.4580 H       1  ZINC000001174632    0.1300
     44 H44        -9.2986    3.8314   61.2441 H       1  ZINC000001174632    0.1300
     45 H45        -7.2185    4.7304   55.8884 H       1  ZINC000001174632    0.1400
     46 H46        -8.5294    5.3204   53.8792 H       1  ZINC000001174632    0.1400
     47 H47       -10.8952    4.6919   53.7207 H       1  ZINC000001174632    0.1400
     48 H48       -11.9840    3.4650   55.5636 H       1  ZINC000001174632    0.1300
@<TRIPOS>BOND
     1     1     2    1
     2     1    30    1
     3     1    31    1
     4     1    32    1
     5     2     3    1
     6     3     4    2
     7     3     5    1
     8     5    10   ar
     9     5     6   ar
    10     6     7   ar
    11     6    33    1
    12     7     8   ar
    13     7    34    1
    14     8     9   ar
    15     8    35    1
    16     9    10   ar
    17     9    36    1
    18    10    11    1
    19    11    12    1
    20    11    37    1
    21    12    29    1
    22    12    13    2
    23    13    14    1
    24    13    22    1
    25    14    21   ar
    26    14    15   ar
    27    15    16   ar
    28    15    38    1
    29    16    17   ar
    30    16    39    1
    31    17    18    1
    32    17    20   ar
    33    18    19    1
    34    19    40    1
    35    19    41    1
    36    19    42    1
    37    20    21   ar
    38    20    43    1
    39    21    44    1
    40    22    23    2
    41    22    24    1
    42    24    29   ar
    43    24    25   ar
    44    25    26   ar
    45    25    45    1
    46    26    27   ar
    47    26    46    1
    48    27    28   ar
    49    27    47    1
    50    28    29   ar
    51    28    48    1
@<TRIPOS>SUBSTRUCTURE
     1 ZINC000001174632        1 TEMP              0 ****  ****    0 ROOT


##########                                Name:    ZINC001067560454
##########                DOCK_Rotatable_Bonds:                   4
##########                         Heavy_Atoms:                  25
##########                    Molecular_Weight:             342.444
##########                DOCK_Rotatable_Bonds:                   4
##########                       Formal_Charge:          0.00999971
##########                     HBond_Acceptors:                   7
##########                        HBond_Donors:                   1
##########                         Heavy_Atoms:                  25
##########                          Grid_Score:          -22.000917
##########                     Grid_vdw_energy:          -21.456953
##########                      Grid_es_energy:           -0.543964
##########           Internal_energy_repulsive:           10.665872

@<TRIPOS>MOLECULE
ZINC001067560454
 51 54 1 0 0
SMALL
USER_CHARGES


@<TRIPOS>ATOM
      1 C1        -12.6913   -0.0173   60.9378 C.3     1  ZINC001067560454   -0.1500
      2 C2        -11.8764    0.6980   59.8582 C.3     1  ZINC001067560454    0.1000
      3 H3        -11.5150   -0.0313   59.1332 H       1  ZINC001067560454    0.0600
      4 C4        -12.7607    1.7265   59.1496 C.3     1  ZINC001067560454   -0.1200
      5 C5        -11.9360    2.4535   58.0840 C.3     1  ZINC001067560454    0.1400
      6 H6        -11.5955    1.7378   57.3356 H       1  ZINC001067560454    0.0900
      7 N7        -12.7617    3.4786   57.4408 N.am    1  ZINC001067560454   -0.7200
      8 C8        -13.4705    3.1769   56.3349 C.2     1  ZINC001067560454    0.5400
      9 O9        -13.4237    2.0572   55.8714 O.2     1  ZINC001067560454   -0.5300
     10 C10       -14.3213    4.2309   55.6743 C.3     1  ZINC001067560454   -0.1100
     11 C11       -15.6529    4.4560   56.3933 C.3     1  ZINC001067560454   -0.1300
     12 C12       -13.5603    5.5302   55.3620 C.3     1  ZINC001067560454   -0.1200
     13 C13       -13.1967    4.8990   54.0077 C.3     1  ZINC001067560454   -0.1400
     14 C14       -14.4657    4.0429   54.1549 C.3     1  ZINC001067560454   -0.1200
     15 C15       -10.7250    3.1133   58.7493 C.3     1  ZINC001067560454   -0.1200
     16 C16        -9.8996    2.0447   59.4696 C.3     1  ZINC001067560454    0.0600
     17 N17       -10.7330    1.3789   60.4789 N.3     1  ZINC001067560454   -0.4900
     18 C18        -9.9834    0.4973   61.2379 C.ar    1  ZINC001067560454    0.4400
     19 C19        -9.6508    0.7980   62.5696 C.ar    1  ZINC001067560454   -0.0800
     20 N20        -9.8960    1.8391   63.4009 N.2     1  ZINC001067560454   -0.4700
     21 C21        -9.3457    1.6087   64.5575 C.2     1  ZINC001067560454    0.2700
     22 N22        -8.7115    0.4021   64.5395 N.pl3   1  ZINC001067560454   -0.4800
     23 C23        -7.9770   -0.2078   65.6506 C.3     1  ZINC001067560454    0.0800
     24 C24        -8.8878   -0.1366   63.2901 C.ar    1  ZINC001067560454    0.2800
     25 N25        -8.5117   -1.2619   62.6917 N.ar    1  ZINC001067560454   -0.5200
     26 C26        -8.8471   -1.5015   61.4414 C.ar    1  ZINC001067560454    0.3300
     27 N27        -9.5660   -0.6561   60.7260 N.ar    1  ZINC001067560454   -0.5100
     28 H28       -13.0527    0.7118   61.6630 H       1  ZINC001067560454    0.0700
     29 H29       -13.5398   -0.5231   60.4772 H       1  ZINC001067560454    0.0700
     30 H30       -12.0616   -0.7501   61.4424 H       1  ZINC001067560454    0.0500
     31 H31       -13.6011    1.2189   58.6758 H       1  ZINC001067560454    0.0800
     32 H32       -13.1335    2.4482   59.8763 H       1  ZINC001067560454    0.0800
     33 H33       -12.7982    4.3745   57.8108 H       1  ZINC001067560454    0.4000
     34 H34       -15.4704    4.6075   57.4572 H       1  ZINC001067560454    0.0600
     35 H35       -16.1447    5.3367   55.9800 H       1  ZINC001067560454    0.0700
     36 H36       -16.2925    3.5843   56.2550 H       1  ZINC001067560454    0.0600
     37 H37       -14.2057    6.4045   55.2771 H       1  ZINC001067560454    0.0900
     38 H38       -12.7003    5.6990   56.0100 H       1  ZINC001067560454    0.0700
     39 H39       -13.2374    5.6002   53.1742 H       1  ZINC001067560454    0.0700
     40 H40       -12.2739    4.3194   54.0297 H       1  ZINC001067560454    0.0800
     41 H41       -14.3365    3.0110   53.8284 H       1  ZINC001067560454    0.0800
     42 H42       -15.3586    4.5105   53.7400 H       1  ZINC001067560454    0.0900
     43 H43       -10.1108    3.5966   57.9895 H       1  ZINC001067560454    0.0800
     44 H44       -11.0657    3.8569   59.4698 H       1  ZINC001067560454    0.0800
     45 H45        -9.5477    1.3090   58.7464 H       1  ZINC001067560454    0.0700
     46 H46        -9.0444    2.5131   59.9564 H       1  ZINC001067560454    0.0800
     47 H47        -9.3852    2.2753   65.4063 H       1  ZINC001067560454    0.2300
     48 H48        -8.6577   -0.8169   66.2454 H       1  ZINC001067560454    0.0800
     49 H49        -7.1776   -0.8355   65.2568 H       1  ZINC001067560454    0.0900
     50 H50        -7.5490    0.5753   66.2766 H       1  ZINC001067560454    0.0900
     51 H51        -8.5252   -2.4258   60.9849 H       1  ZINC001067560454    0.2100
@<TRIPOS>BOND
     1     1     2    1
     2     1    28    1
     3     1    29    1
     4     1    30    1
     5     2     3    1
     6     2    17    1
     7     2     4    1
     8     4     5    1
     9     4    31    1
    10     4    32    1
    11     5     6    1
    12     5     7    1
    13     5    15    1
    14     7     8   am
    15     7    33    1
    16     8     9    2
    17     8    10    1
    18    10    14    1
    19    10    11    1
    20    10    12    1
    21    11    34    1
    22    11    35    1
    23    11    36    1
    24    12    13    1
    25    12    37    1
    26    12    38    1
    27    13    14    1
    28    13    39    1
    29    13    40    1
    30    14    41    1
    31    14    42    1
    32    15    16    1
    33    15    43    1
    34    15    44    1
    35    16    17    1
    36    16    45    1
    37    16    46    1
    38    17    18    1
    39    18    27   ar
    40    18    19   ar
    41    19    24   ar
    42    19    20    1
    43    20    21    2
    44    21    22    1
    45    21    47    1
    46    22    23    1
    47    22    24    1
    48    23    48    1
    49    23    49    1
    50    23    50    1
    51    24    25   ar
    52    25    26   ar
    53    26    27   ar
    54    26    51    1
@<TRIPOS>SUBSTRUCTURE
     1 ZINC001067560454        1 TEMP              0 ****  ****    0 ROOT


##########                                Name:    ZINC000854500114
##########                DOCK_Rotatable_Bonds:                   7
##########                         Heavy_Atoms:                  24
##########                    Molecular_Weight:             399.288
##########                DOCK_Rotatable_Bonds:                   7
##########                       Formal_Charge:          -0.0399992
##########                     HBond_Acceptors:                   7
##########                        HBond_Donors:                   2
##########                         Heavy_Atoms:                  24
##########                          Grid_Score:          -21.990187
##########                     Grid_vdw_energy:          -21.217003
##########                      Grid_es_energy:           -0.773184
##########           Internal_energy_repulsive:           74.430298

@<TRIPOS>MOLECULE
ZINC000854500114
 47 49 1 0 0
SMALL
USER_CHARGES


@<TRIPOS>ATOM
      1 O1         -6.1672    6.3062   60.7933 O.2     1  ZINC000854500114   -0.5800
      2 C2         -6.8997    5.6209   60.1073 C.2     1  ZINC000854500114    0.6600
      3 N3         -6.4616    5.1386   58.9275 N.am    1  ZINC000854500114   -0.7100
      4 C4         -5.1043    5.4455   58.4692 C.3     1  ZINC000854500114    0.1600
      5 C5         -4.5949    4.3255   57.5388 C.3     1  ZINC000854500114   -0.1400
      6 C6         -4.9030    4.8466   56.1131 C.3     1  ZINC000854500114   -0.1300
      7 C7         -4.6020    6.3614   56.2304 C.3     1  ZINC000854500114   -0.1300
      8 C8         -5.1089    6.7399   57.6373 C.3     1  ZINC000854500114   -0.1300
      9 O9         -8.1470    5.3388   60.5284 O.3     1  ZINC000854500114   -0.3600
     10 C10        -8.6642    4.0179   60.2190 C.3     1  ZINC000854500114    0.1000
     11 C11        -9.7364    3.6375   61.2421 C.3     1  ZINC000854500114    0.1500
     12 H12       -10.5927    4.3040   61.1390 H       1  ZINC000854500114    0.0900
     13 C13        -9.1611    3.7556   62.6570 C.3     1  ZINC000854500114   -0.1300
     14 C14       -10.1903    3.2420   63.6664 C.3     1  ZINC000854500114   -0.1200
     15 C15       -10.4885    1.7671   63.3879 C.3     1  ZINC000854500114   -0.1400
     16 C16       -11.0789    1.6264   61.9813 C.3     1  ZINC000854500114    0.0900
     17 N17       -10.1625    2.2497   61.0161 N.am    1  ZINC000854500114   -0.6100
     18 C18        -9.7177    1.5596   59.9473 C.2     1  ZINC000854500114    0.5900
     19 O19        -8.9594    2.0868   59.1557 O.2     1  ZINC000854500114   -0.4900
     20 C20       -10.1493    0.1684   59.7380 C.2     1  ZINC000854500114   -0.0300
     21 C21       -11.3802   -0.2579   59.2703 C.2     1  ZINC000854500114   -0.1200
     22 C22       -11.3041   -1.6531   59.2469 C.2     1  ZINC000854500114    0.0200
     23 Br23      -12.6757   -2.8342   58.6993 Br      1  ZINC000854500114    0.0400
     24 N24       -10.1144   -1.9971   59.6712 N.2     1  ZINC000854500114   -0.2400
     25 N25        -9.4134   -0.9606   59.9609 N.pl3   1  ZINC000854500114   -0.3700
     26 H26        -7.0449    4.5883   58.3817 H       1  ZINC000854500114    0.4000
     27 H27        -4.4373    5.5537   59.3245 H       1  ZINC000854500114    0.0900
     28 H28        -3.5224    4.1803   57.6683 H       1  ZINC000854500114    0.0800
     29 H29        -5.1324    3.3967   57.7299 H       1  ZINC000854500114    0.0700
     30 H30        -4.2463    4.3779   55.3801 H       1  ZINC000854500114    0.0700
     31 H31        -5.9495    4.6792   55.8584 H       1  ZINC000854500114    0.0700
     32 H32        -3.5308    6.5449   56.1487 H       1  ZINC000854500114    0.0700
     33 H33        -5.1449    6.9184   55.4667 H       1  ZINC000854500114    0.0700
     34 H34        -6.1210    7.1399   57.5746 H       1  ZINC000854500114    0.0700
     35 H35        -4.4435    7.4760   58.0885 H       1  ZINC000854500114    0.0800
     36 H36        -9.1007    4.0233   59.2203 H       1  ZINC000854500114    0.1000
     37 H37        -7.8522    3.2917   60.2567 H       1  ZINC000854500114    0.0700
     38 H38        -8.2510    3.1603   62.7305 H       1  ZINC000854500114    0.0800
     39 H39        -8.9317    4.7997   62.8704 H       1  ZINC000854500114    0.0900
     40 H40        -9.7931    3.3478   64.6759 H       1  ZINC000854500114    0.0800
     41 H41       -11.1089    3.8217   63.5753 H       1  ZINC000854500114    0.0700
     42 H42        -9.5660    1.1904   63.4545 H       1  ZINC000854500114    0.0700
     43 H43       -11.2040    1.3956   64.1216 H       1  ZINC000854500114    0.0800
     44 H44       -11.2009    0.5704   61.7402 H       1  ZINC000854500114    0.0800
     45 H45       -12.0462    2.1270   61.9393 H       1  ZINC000854500114    0.0800
     46 H46       -12.2208    0.3570   58.9844 H       1  ZINC000854500114    0.1700
     47 H47        -8.5022   -0.9771   60.2932 H       1  ZINC000854500114    0.4500
@<TRIPOS>BOND
     1     1     2    2
     2     2     3   am
     3     2     9    1
     4     3     4    1
     5     3    26    1
     6     4     8    1
     7     4     5    1
     8     4    27    1
     9     5     6    1
    10     5    28    1
    11     5    29    1
    12     6     7    1
    13     6    30    1
    14     6    31    1
    15     7     8    1
    16     7    32    1
    17     7    33    1
    18     8    34    1
    19     8    35    1
    20     9    10    1
    21    10    11    1
    22    10    36    1
    23    10    37    1
    24    11    12    1
    25    11    17    1
    26    11    13    1
    27    13    14    1
    28    13    38    1
    29    13    39    1
    30    14    15    1
    31    14    40    1
    32    14    41    1
    33    15    16    1
    34    15    42    1
    35    15    43    1
    36    16    17    1
    37    16    44    1
    38    16    45    1
    39    17    18   am
    40    18    19    2
    41    18    20    1
    42    20    25    1
    43    20    21    2
    44    21    22    1
    45    21    46    1
    46    22    23    1
    47    22    24    2
    48    24    25    1
    49    25    47    1
@<TRIPOS>SUBSTRUCTURE
     1 ZINC000854500114        1 TEMP              0 ****  ****    0 ROOT


##########                                Name:    ZINC000444205493
##########                DOCK_Rotatable_Bonds:                   4
##########                         Heavy_Atoms:                  24
##########                    Molecular_Weight:             415.351
##########                DOCK_Rotatable_Bonds:                   4
##########                       Formal_Charge:         -0.00999995
##########                     HBond_Acceptors:                   6
##########                        HBond_Donors:                   1
##########                         Heavy_Atoms:                  24
##########                          Grid_Score:          -21.923805
##########                     Grid_vdw_energy:          -22.982252
##########                      Grid_es_energy:            1.058448
##########           Internal_energy_repulsive:          156.262161

@<TRIPOS>MOLECULE
ZINC000444205493
 47 49 1 0 0
SMALL
USER_CHARGES


@<TRIPOS>ATOM
      1 C1         -7.7551    6.7597   57.6985 C.3     1  ZINC000444205493   -0.1700
      2 C2         -8.2543    5.4506   58.2534 C.2     1  ZINC000444205493    0.5100
      3 O3         -8.3281    4.4762   57.5351 O.2     1  ZINC000444205493   -0.5100
      4 N4         -8.6190    5.3627   59.5479 N.am    1  ZINC000444205493   -0.6800
      5 C5         -9.0826    4.1468   60.0633 C.ar    1  ZINC000444205493    0.2300
      6 C6         -9.1621    3.0290   59.2440 C.ar    1  ZINC000444205493   -0.1400
      7 C7         -9.6196    1.8302   59.7558 C.ar    1  ZINC000444205493    0.0200
      8 C8         -9.9988    1.7425   61.0824 C.ar    1  ZINC000444205493   -0.6900
      9 S9        -10.5823    0.2115   61.7305 S.o2    1  ZINC000444205493    2.7100
     10 O10        -9.5880   -0.7575   61.4278 O.2     1  ZINC000444205493   -0.9500
     11 O11       -11.0293    0.4797   63.0526 O.2     1  ZINC000444205493   -0.9500
     12 N12       -11.9262   -0.2095   60.8591 N.am    1  ZINC000444205493   -1.0100
     13 C13       -13.1656    0.5833   60.7526 C.3     1  ZINC000444205493    0.1200
     14 C14       -13.8181    0.1291   59.4209 C.3     1  ZINC000444205493   -0.1200
     15 C15       -13.4640   -1.3705   59.4020 C.3     1  ZINC000444205493   -0.0700
     16 C16       -14.4973   -2.1854   60.1868 C.3     1  ZINC000444205493   -0.1100
     17 C17       -15.4363   -2.7528   59.0900 C.3     1  ZINC000444205493   -0.1200
     18 C18       -14.4604   -3.0651   57.9271 C.3     1  ZINC000444205493   -0.1000
     19 H19       -13.9657   -4.0225   58.0911 H       1  ZINC000444205493    0.0700
     20 C20       -15.2047   -3.0705   56.5905 C.3     1  ZINC000444205493   -0.1500
     21 C21       -13.4334   -1.9110   57.9728 C.3     1  ZINC000444205493   -0.1100
     22 C22       -12.0800   -1.4347   60.0562 C.3     1  ZINC000444205493    0.1300
     23 C23        -9.9208    2.8537   61.9020 C.ar    1  ZINC000444205493    0.0300
     24 C24        -9.4591    4.0544   61.3979 C.ar    1  ZINC000444205493   -0.1500
     25 Br25       -9.3526    5.5736   62.5190 Br      1  ZINC000444205493   -0.0300
     26 H26        -7.5102    6.6373   56.6434 H       1  ZINC000444205493    0.1000
     27 H27        -8.5298    7.5190   57.8060 H       1  ZINC000444205493    0.1000
     28 H28        -6.8643    7.0698   58.2447 H       1  ZINC000444205493    0.1000
     29 H29        -8.5601    6.1421   60.1224 H       1  ZINC000444205493    0.4200
     30 H30        -8.8667    3.0966   58.2073 H       1  ZINC000444205493    0.1600
     31 H31        -9.6815    0.9603   59.1186 H       1  ZINC000444205493    0.1500
     32 H32       -13.8269    0.3673   61.5918 H       1  ZINC000444205493    0.0800
     33 H33       -12.9327    1.6476   60.7169 H       1  ZINC000444205493    0.0800
     34 H34       -14.8980    0.2756   59.4446 H       1  ZINC000444205493    0.0900
     35 H35       -13.3734    0.6466   58.5710 H       1  ZINC000444205493    0.0800
     36 H36       -14.0120   -2.9954   60.7313 H       1  ZINC000444205493    0.0700
     37 H37       -15.0521   -1.5426   60.8702 H       1  ZINC000444205493    0.0700
     38 H38       -15.9281   -3.6620   59.4357 H       1  ZINC000444205493    0.0700
     39 H39       -16.1709   -2.0066   58.7873 H       1  ZINC000444205493    0.0700
     40 H40       -15.6770   -2.1007   56.4337 H       1  ZINC000444205493    0.0500
     41 H41       -14.4995   -3.2660   55.7826 H       1  ZINC000444205493    0.0500
     42 H42       -15.9679   -3.8486   56.6026 H       1  ZINC000444205493    0.0500
     43 H43       -13.7179   -1.1281   57.2698 H       1  ZINC000444205493    0.0700
     44 H44       -12.4378   -2.2855   57.7350 H       1  ZINC000444205493    0.0700
     45 H45       -11.3076   -1.4825   59.2887 H       1  ZINC000444205493    0.0700
     46 H46       -12.0152   -2.3085   60.7047 H       1  ZINC000444205493    0.0800
     47 H47       -10.2174    2.7819   62.9380 H       1  ZINC000444205493    0.1500
@<TRIPOS>BOND
     1     1     2    1
     2     1    26    1
     3     1    27    1
     4     1    28    1
     5     2     3    2
     6     2     4   am
     7     4     5    1
     8     4    29    1
     9     5    24   ar
    10     5     6   ar
    11     6     7   ar
    12     6    30    1
    13     7     8   ar
    14     7    31    1
    15     8     9    1
    16     8    23   ar
    17     9    10    2
    18     9    11    2
    19     9    12   am
    20    12    22    1
    21    12    13    1
    22    13    14    1
    23    13    32    1
    24    13    33    1
    25    14    15    1
    26    14    34    1
    27    14    35    1
    28    15    21    1
    29    15    16    1
    30    15    22    1
    31    16    17    1
    32    16    36    1
    33    16    37    1
    34    17    18    1
    35    17    38    1
    36    17    39    1
    37    18    19    1
    38    18    20    1
    39    18    21    1
    40    20    40    1
    41    20    41    1
    42    20    42    1
    43    21    43    1
    44    21    44    1
    45    22    45    1
    46    22    46    1
    47    23    24   ar
    48    23    47    1
    49    24    25    1
@<TRIPOS>SUBSTRUCTURE
     1 ZINC000444205493        1 TEMP              0 ****  ****    0 ROOT


##########                                Name:    ZINC000430767928
##########                DOCK_Rotatable_Bonds:                   4
##########                         Heavy_Atoms:                  25
##########                    Molecular_Weight:             358.505
##########                DOCK_Rotatable_Bonds:                   4
##########                       Formal_Charge:          -0.0100002
##########                     HBond_Acceptors:                   5
##########                        HBond_Donors:                   0
##########                         Heavy_Atoms:                  25
##########                          Grid_Score:          -21.849886
##########                     Grid_vdw_energy:          -21.659000
##########                      Grid_es_energy:           -0.190886
##########           Internal_energy_repulsive:           61.710144

@<TRIPOS>MOLECULE
ZINC000430767928
 51 55 1 0 0
SMALL
USER_CHARGES


@<TRIPOS>ATOM
      1 O1        -11.0352   -1.7891   59.1566 O.2     1  ZINC000430767928   -0.4600
      2 C2        -11.3847   -0.6288   59.1192 C.2     1  ZINC000430767928    0.5300
      3 C3        -10.5565    0.5887   59.4524 C.3     1  ZINC000430767928    0.0400
      4 H4         -9.7925    0.7982   58.7037 H       1  ZINC000430767928    0.1400
      5 C5         -9.9864    0.5117   60.8838 C.3     1  ZINC000430767928   -0.1100
      6 C6         -9.9420    2.0032   61.3039 C.3     1  ZINC000430767928   -0.1000
      7 H7         -8.9450    2.4130   61.1424 H       1  ZINC000430767928    0.1000
      8 C8        -10.3473    2.1549   62.7715 C.3     1  ZINC000430767928   -0.0800
      9 C9         -9.3731    1.3713   63.6534 C.3     1  ZINC000430767928   -0.1100
     10 C10        -9.7785    1.5230   65.1209 C.3     1  ZINC000430767928   -0.1200
     11 C11        -9.7416    3.0023   65.5098 C.3     1  ZINC000430767928   -0.1200
     12 C12       -10.7157    3.7860   64.6279 C.3     1  ZINC000430767928   -0.1200
     13 C13       -10.3103    3.6342   63.1604 C.3     1  ZINC000430767928   -0.1200
     14 C14       -10.9664    2.7046   60.3860 C.3     1  ZINC000430767928    0.1600
     15 N15       -11.5872    1.6597   59.5546 N.am    1  ZINC000430767928   -0.6400
     16 C16       -12.6533    1.1950   58.8953 C.2     1  ZINC000430767928    0.7400
     17 O17       -13.5608    1.8919   58.4855 O.2     1  ZINC000430767928   -0.5100
     18 N18       -12.5972   -0.1485   58.7645 N.am    1  ZINC000430767928   -0.5800
     19 C19       -13.7112   -0.9812   58.3043 C.3     1  ZINC000430767928    0.2600
     20 H20       -14.6536   -0.5360   58.6233 H       1  ZINC000430767928    0.1200
     21 C21       -13.6824   -1.0724   56.8004 C.2     1  ZINC000430767928   -0.2100
     22 C22       -14.2866   -0.2243   55.9669 C.2     1  ZINC000430767928   -0.1200
     23 C23       -14.1198   -0.5092   54.6226 C.2     1  ZINC000430767928   -0.1400
     24 C24       -13.3801   -1.5888   54.3645 C.2     1  ZINC000430767928   -0.2300
     25 S25       -12.8405   -2.3092   55.8755 S.3     1  ZINC000430767928    0.1700
     26 C26       -13.5810   -2.3833   58.9029 C.3     1  ZINC000430767928   -0.1700
     27 C27       -14.6181   -2.8052   59.9458 C.3     1  ZINC000430767928   -0.1700
     28 C28       -14.6571   -3.4088   58.5403 C.3     1  ZINC000430767928   -0.1600
     29 H29       -10.6511   -0.0550   61.5357 H       1  ZINC000430767928    0.0800
     30 H30        -8.9854    0.0802   60.8796 H       1  ZINC000430767928    0.1000
     31 H31       -11.3565    1.7675   62.9116 H       1  ZINC000430767928    0.0700
     32 H32        -9.3994    0.3173   63.3763 H       1  ZINC000430767928    0.0600
     33 H33        -8.3640    1.7587   63.5132 H       1  ZINC000430767928    0.0700
     34 H34       -10.7876    1.1356   65.2610 H       1  ZINC000430767928    0.0600
     35 H35        -9.0845    0.9647   65.7491 H       1  ZINC000430767928    0.0600
     36 H36       -10.0303    3.1104   66.5552 H       1  ZINC000430767928    0.0600
     37 H37        -8.7325    3.3898   65.3697 H       1  ZINC000430767928    0.0600
     38 H38       -11.7249    3.3986   64.7680 H       1  ZINC000430767928    0.0600
     39 H39       -10.6895    4.8398   64.9049 H       1  ZINC000430767928    0.0600
     40 H40        -9.3012    4.0216   63.0202 H       1  ZINC000430767928    0.0700
     41 H41       -11.0045    4.1925   62.5322 H       1  ZINC000430767928    0.0600
     42 H42       -11.7226    3.2090   60.9876 H       1  ZINC000430767928    0.0900
     43 H43       -10.4598    3.4239   59.7426 H       1  ZINC000430767928    0.0800
     44 H44       -14.8626    0.6206   56.3145 H       1  ZINC000430767928    0.1400
     45 H45       -14.5558    0.0965   53.8420 H       1  ZINC000430767928    0.1400
     46 H46       -13.1455   -1.9615   53.3783 H       1  ZINC000430767928    0.1600
     47 H47       -12.5616   -2.7472   59.0305 H       1  ZINC000430767928    0.1200
     48 H48       -14.2810   -3.4468   60.7598 H       1  ZINC000430767928    0.1000
     49 H49       -15.3930   -2.0840   60.2053 H       1  ZINC000430767928    0.1000
     50 H50       -15.4576   -3.0847   57.8754 H       1  ZINC000430767928    0.1000
     51 H51       -14.3455   -4.4475   58.4299 H       1  ZINC000430767928    0.1000
@<TRIPOS>BOND
     1     1     2    2
     2     2    18   am
     3     2     3    1
     4     3     4    1
     5     3    15    1
     6     3     5    1
     7     5     6    1
     8     5    29    1
     9     5    30    1
    10     6     7    1
    11     6     8    1
    12     6    14    1
    13     8    13    1
    14     8     9    1
    15     8    31    1
    16     9    10    1
    17     9    32    1
    18     9    33    1
    19    10    11    1
    20    10    34    1
    21    10    35    1
    22    11    12    1
    23    11    36    1
    24    11    37    1
    25    12    13    1
    26    12    38    1
    27    12    39    1
    28    13    40    1
    29    13    41    1
    30    14    15    1
    31    14    42    1
    32    14    43    1
    33    15    16   am
    34    16    17    2
    35    16    18   am
    36    18    19    1
    37    19    20    1
    38    19    21    1
    39    19    26    1
    40    21    25    1
    41    21    22    2
    42    22    23    1
    43    22    44    1
    44    23    24    2
    45    23    45    1
    46    24    25    1
    47    24    46    1
    48    26    28    1
    49    26    27    1
    50    26    47    1
    51    27    28    1
    52    27    48    1
    53    27    49    1
    54    28    50    1
    55    28    51    1
@<TRIPOS>SUBSTRUCTURE
     1 ZINC000430767928        1 TEMP              0 ****  ****    0 ROOT


##########                                Name:    ZINC000543020509
##########                DOCK_Rotatable_Bonds:                   5
##########                         Heavy_Atoms:                  26
##########                    Molecular_Weight:              366.81
##########                DOCK_Rotatable_Bonds:                   5
##########                       Formal_Charge:               -0.02
##########                     HBond_Acceptors:                   8
##########                        HBond_Donors:                   1
##########                         Heavy_Atoms:                  26
##########                          Grid_Score:          -21.763754
##########                     Grid_vdw_energy:          -22.977591
##########                      Grid_es_energy:            1.213837
##########           Internal_energy_repulsive:           22.515762

@<TRIPOS>MOLECULE
ZINC000543020509
 41 43 1 0 0
SMALL
USER_CHARGES


@<TRIPOS>ATOM
      1 C1         -4.9217    3.9242   56.6445 C.3     1  ZINC000543020509    0.0800
      2 N2         -5.0260    5.0014   57.6319 N.pl3   1  ZINC000543020509   -0.6200
      3 C3         -4.0266    6.0722   57.6559 C.3     1  ZINC000543020509    0.0900
      4 C4         -6.0746    5.0074   58.5472 C.ar    1  ZINC000543020509    0.2500
      5 C5         -6.1898    6.0231   59.4948 C.ar    1  ZINC000543020509   -0.2200
      6 C6         -7.2446    5.9974   60.3884 C.ar    1  ZINC000543020509    0.1400
      7 N7         -8.1372    5.0306   60.3557 N.ar    1  ZINC000543020509   -0.5000
      8 C8         -8.0675    4.0422   59.4704 C.ar    1  ZINC000543020509    0.1100
      9 C9         -9.0982    2.9783   59.4758 C.2     1  ZINC000543020509    0.5900
     10 O10        -9.0397    2.0714   58.6689 O.2     1  ZINC000543020509   -0.5000
     11 N11       -10.1010    3.0159   60.3756 N.am    1  ZINC000543020509   -0.6200
     12 C12       -11.0738    2.0098   60.3818 C.2     1  ZINC000543020509    0.3200
     13 N13       -11.1861    1.0424   59.5020 N.2     1  ZINC000543020509   -0.3100
     14 N14       -12.2825    0.2482   59.8619 N.pl3   1  ZINC000543020509   -0.3300
     15 C15       -12.7362   -0.8839   59.1806 C.ar    1  ZINC000543020509    0.2200
     16 C16       -14.0774   -1.0060   58.8484 C.ar    1  ZINC000543020509   -0.1300
     17 C17       -14.5248   -2.1258   58.1747 C.ar    1  ZINC000543020509   -0.0500
     18 C18       -13.6405   -3.1341   57.8260 C.ar    1  ZINC000543020509   -0.0600
     19 Cl19      -14.2178   -4.5355   56.9795 Cl      1  ZINC000543020509   -0.0500
     20 C20       -12.3027   -3.0288   58.1484 C.ar    1  ZINC000543020509   -0.0400
     21 C21       -11.8364   -1.8996   58.8245 C.ar    1  ZINC000543020509   -0.0200
     22 C22       -10.4496   -1.7840   59.1620 C.1     1  ZINC000543020509    0.2500
     23 N23        -9.3494   -1.6922   59.4298 N.1     1  ZINC000543020509   -0.3800
     24 C24       -12.8264    0.7733   60.9909 C.2     1  ZINC000543020509    0.0700
     25 C25       -12.0956    1.8575   61.3345 C.2     1  ZINC000543020509   -0.2400
     26 C26        -7.0395    4.0003   58.5355 C.ar    1  ZINC000543020509   -0.1800
     27 H27        -4.3256    3.1099   57.0565 H       1  ZINC000543020509    0.0600
     28 H28        -5.9187    3.5571   56.4005 H       1  ZINC000543020509    0.0700
     29 H29        -4.4434    4.3039   55.7416 H       1  ZINC000543020509    0.0700
     30 H30        -3.2894    5.8990   56.8717 H       1  ZINC000543020509    0.0800
     31 H31        -4.5171    7.0310   57.4879 H       1  ZINC000543020509    0.0600
     32 H32        -3.5293    6.0836   58.6258 H       1  ZINC000543020509    0.0600
     33 H33        -5.4630    6.8212   59.5309 H       1  ZINC000543020509    0.1400
     34 H34        -7.3374    6.7823   61.1243 H       1  ZINC000543020509    0.1700
     35 H35       -10.1483    3.7404   61.0189 H       1  ZINC000543020509    0.4300
     36 H36       -14.7727   -0.2245   59.1170 H       1  ZINC000543020509    0.1500
     37 H37       -15.5701   -2.2162   57.9186 H       1  ZINC000543020509    0.1500
     38 H38       -11.6169   -3.8169   57.8747 H       1  ZINC000543020509    0.1500
     39 H39       -13.6860    0.3906   61.5211 H       1  ZINC000543020509    0.1900
     40 H40       -12.2702    2.4974   62.1868 H       1  ZINC000543020509    0.1800
     41 H41        -6.9846    3.1965   57.8163 H       1  ZINC000543020509    0.1500
@<TRIPOS>BOND
     1     1     2    1
     2     1    27    1
     3     1    28    1
     4     1    29    1
     5     2     3    1
     6     2     4    1
     7     3    30    1
     8     3    31    1
     9     3    32    1
    10     4    26   ar
    11     4     5   ar
    12     5     6   ar
    13     5    33    1
    14     6     7   ar
    15     6    34    1
    16     7     8   ar
    17     8     9    1
    18     8    26   ar
    19     9    10    2
    20     9    11   am
    21    11    12    1
    22    11    35    1
    23    12    25    1
    24    12    13    2
    25    13    14    1
    26    14    15    1
    27    14    24    1
    28    15    21   ar
    29    15    16   ar
    30    16    17   ar
    31    16    36    1
    32    17    18   ar
    33    17    37    1
    34    18    19    1
    35    18    20   ar
    36    20    21   ar
    37    20    38    1
    38    21    22    1
    39    22    23    3
    40    24    25    2
    41    24    39    1
    42    25    40    1
    43    26    41    1
@<TRIPOS>SUBSTRUCTURE
     1 ZINC000543020509        1 TEMP              0 ****  ****    0 ROOT


##########                                Name:    ZINC000535362552
##########                DOCK_Rotatable_Bonds:                   5
##########                         Heavy_Atoms:                  26
##########                    Molecular_Weight:             416.228
##########                DOCK_Rotatable_Bonds:                   5
##########                       Formal_Charge:         -0.00999981
##########                     HBond_Acceptors:                   6
##########                        HBond_Donors:                   1
##########                         Heavy_Atoms:                  26
##########                          Grid_Score:          -21.762157
##########                     Grid_vdw_energy:          -20.795456
##########                      Grid_es_energy:           -0.966702
##########           Internal_energy_repulsive:          163.193771

@<TRIPOS>MOLECULE
ZINC000535362552
 40 43 1 0 0
SMALL
USER_CHARGES


@<TRIPOS>ATOM
      1 C1        -10.6721    5.8512   66.3635 C.3     1  ZINC000535362552    0.0300
      2 O2        -11.2647    4.8414   65.5048 O.3     1  ZINC000535362552   -0.3400
      3 C3        -12.5250    5.0629   65.0787 C.2     1  ZINC000535362552    0.5500
      4 O4        -13.1119    6.0729   65.4158 O.2     1  ZINC000535362552   -0.4800
      5 C5        -13.1881    4.0845   64.2081 C.2     1  ZINC000535362552   -0.0100
      6 C6        -12.6345    2.9214   63.7748 C.2     1  ZINC000535362552   -0.0900
      7 C7        -13.6487    2.2754   62.9427 C.ar    1  ZINC000535362552   -0.1300
      8 C8        -13.6968    1.0804   62.2213 C.ar    1  ZINC000535362552   -0.0600
      9 C9        -14.8414    0.7543   61.5183 C.ar    1  ZINC000535362552    0.1200
     10 N10       -14.8986   -0.4427   60.7923 N.am    1  ZINC000535362552   -0.6700
     11 C11       -13.8381   -1.2744   60.7796 C.2     1  ZINC000535362552    0.5200
     12 O12       -12.8343   -0.9868   61.3967 O.2     1  ZINC000535362552   -0.5000
     13 C13       -13.8996   -2.5618   59.9988 C.3     1  ZINC000535362552   -0.1000
     14 H14       -14.1435   -3.3999   60.6518 H       1  ZINC000535362552    0.1300
     15 C15       -14.9132   -2.4548   58.8350 C.3     1  ZINC000535362552    0.0600
     16 O16       -14.2821   -3.2167   57.7919 O.3     1  ZINC000535362552   -0.2900
     17 C17       -12.9318   -3.1773   57.9620 C.ar    1  ZINC000535362552    0.1300
     18 C18       -11.9095   -3.4435   57.0549 C.ar    1  ZINC000535362552   -0.1300
     19 C19       -10.5901   -3.3500   57.4474 C.ar    1  ZINC000535362552   -0.0500
     20 C20       -10.2708   -2.9918   58.7448 C.ar    1  ZINC000535362552   -0.1200
     21 Br21       -8.4605   -2.8708   59.2777 Br      1  ZINC000535362552   -0.0400
     22 C22       -11.2818   -2.7217   59.6516 C.ar    1  ZINC000535362552   -0.0100
     23 C23       -12.5986   -2.8106   59.2606 C.ar    1  ZINC000535362552   -0.1600
     24 C24       -15.9391    1.6134   61.5302 C.ar    1  ZINC000535362552   -0.0900
     25 C25       -15.8998    2.7939   62.2383 C.ar    1  ZINC000535362552   -0.0900
     26 C26       -14.7590    3.1407   62.9526 C.ar    1  ZINC000535362552    0.0700
     27 O27       -14.4415    4.2013   63.7220 O.3     1  ZINC000535362552   -0.1700
     28 H28       -11.2723    5.9574   67.2672 H       1  ZINC000535362552    0.0700
     29 H29        -9.6598    5.5502   66.6331 H       1  ZINC000535362552    0.1100
     30 H30       -10.6394    6.8039   65.8349 H       1  ZINC000535362552    0.0700
     31 H31       -11.6455    2.5499   63.9990 H       1  ZINC000535362552    0.1800
     32 H32       -12.8455    0.4158   62.2126 H       1  ZINC000535362552    0.1400
     33 H33       -15.7014   -0.6727   60.2989 H       1  ZINC000535362552    0.4100
     34 H34       -15.8690   -2.8987   59.1132 H       1  ZINC000535362552    0.1200
     35 H35       -15.0429   -1.4162   58.5302 H       1  ZINC000535362552    0.0900
     36 H36       -12.1503   -3.7239   56.0401 H       1  ZINC000535362552    0.1400
     37 H37        -9.8026   -3.5579   56.7382 H       1  ZINC000535362552    0.1400
     38 H38       -11.0374   -2.4417   60.6656 H       1  ZINC000535362552    0.1400
     39 H39       -16.8293    1.3507   60.9780 H       1  ZINC000535362552    0.1500
     40 H40       -16.7568    3.4511   62.2389 H       1  ZINC000535362552    0.1500
@<TRIPOS>BOND
     1     1     2    1
     2     1    28    1
     3     1    29    1
     4     1    30    1
     5     2     3    1
     6     3     4    2
     7     3     5    1
     8     5    27    1
     9     5     6    2
    10     6     7    1
    11     6    31    1
    12     7    26   ar
    13     7     8   ar
    14     8     9   ar
    15     8    32    1
    16     9    10    1
    17     9    24   ar
    18    10    11   am
    19    10    33    1
    20    11    12    2
    21    11    13    1
    22    13    14    1
    23    13    23    1
    24    13    15    1
    25    15    16    1
    26    15    34    1
    27    15    35    1
    28    16    17    1
    29    17    23   ar
    30    17    18   ar
    31    18    19   ar
    32    18    36    1
    33    19    20   ar
    34    19    37    1
    35    20    21    1
    36    20    22   ar
    37    22    23   ar
    38    22    38    1
    39    24    25   ar
    40    24    39    1
    41    25    26   ar
    42    25    40    1
    43    26    27    1
@<TRIPOS>SUBSTRUCTURE
     1 ZINC000535362552        1 TEMP              0 ****  ****    0 ROOT


##########                                Name:    ZINC000646817380
##########                DOCK_Rotatable_Bonds:                   6
##########                         Heavy_Atoms:                  25
##########                    Molecular_Weight:             347.457
##########                DOCK_Rotatable_Bonds:                   6
##########                       Formal_Charge:           0.0199991
##########                     HBond_Acceptors:                   6
##########                        HBond_Donors:                   1
##########                         Heavy_Atoms:                  25
##########                          Grid_Score:          -21.543242
##########                     Grid_vdw_energy:          -20.837719
##########                      Grid_es_energy:           -0.705522
##########           Internal_energy_repulsive:           81.787422

@<TRIPOS>MOLECULE
ZINC000646817380
 54 56 1 0 0
SMALL
USER_CHARGES


@<TRIPOS>ATOM
      1 C1         -9.8865    2.7441   52.3229 C.3     1  ZINC000646817380   -0.1500
      2 C2         -9.1399    3.9128   51.6766 C.3     1  ZINC000646817380   -0.0100
      3 C3         -9.9609    5.1938   51.8371 C.3     1  ZINC000646817380   -0.1500
      4 C4         -7.8016    4.0865   52.3473 C.2     1  ZINC000646817380   -0.0100
      5 C5         -6.6358    3.5028   51.9878 C.2     1  ZINC000646817380   -0.2200
      6 C6         -5.6992    3.9965   52.9349 C.2     1  ZINC000646817380    0.2400
      7 N7         -4.3402    3.6957   53.0027 N.am    1  ZINC000646817380   -0.6100
      8 C8         -3.7910    2.8528   52.1058 C.2     1  ZINC000646817380    0.5200
      9 O9         -4.4797    2.3568   51.2384 O.2     1  ZINC000646817380   -0.4900
     10 C10        -2.3346    2.5290   52.1795 C.2     1  ZINC000646817380    0.5300
     11 O11        -1.8507    1.7303   51.4044 O.2     1  ZINC000646817380   -0.5100
     12 N12        -1.5581    3.1235   53.1068 N.am    1  ZINC000646817380   -0.5800
     13 C13        -2.0120    4.1050   54.1028 C.3     1  ZINC000646817380    0.1000
     14 C14        -0.7772    4.5248   54.9280 C.3     1  ZINC000646817380   -0.1300
     15 C15         0.4049    4.1821   53.9834 C.3     1  ZINC000646817380   -0.1000
     16 H16         0.5684    4.9785   53.2573 H       1  ZINC000646817380    0.1000
     17 C17         1.6801    3.9007   54.7806 C.3     1  ZINC000646817380   -0.0700
     18 H18         1.4252    3.5435   55.7784 H       1  ZINC000646817380    0.0800
     19 C19         2.5408    2.8510   54.0475 C.3     1  ZINC000646817380   -0.1300
     20 C20         3.9976    3.3173   54.2908 C.3     1  ZINC000646817380   -0.1300
     21 C21         3.8823    4.8593   54.2017 C.3     1  ZINC000646817380   -0.1200
     22 C22         2.5325    5.1779   54.8797 C.3     1  ZINC000646817380   -0.0700
     23 C23         1.8381    6.3293   54.1496 C.3     1  ZINC000646817380   -0.1600
     24 C24         2.7574    5.5470   56.3474 C.3     1  ZINC000646817380   -0.1400
     25 C25        -0.1141    2.8928   53.2942 C.3     1  ZINC000646817380    0.0900
     26 N26        -6.3682    4.7899   53.7301 N.2     1  ZINC000646817380   -0.3800
     27 O27        -7.5333    4.8543   53.4132 O.3     1  ZINC000646817380    0.1100
     28 H28       -10.8544    2.6185   51.8378 H       1  ZINC000646817380    0.0700
     29 H29        -9.3016    1.8315   52.2085 H       1  ZINC000646817380    0.0600
     30 H30       -10.0352    2.9498   53.3830 H       1  ZINC000646817380    0.0600
     31 H31        -8.9912    3.7072   50.6165 H       1  ZINC000646817380    0.1100
     32 H32       -10.1097    5.3995   52.8972 H       1  ZINC000646817380    0.0600
     33 H33        -9.4291    6.0264   51.3767 H       1  ZINC000646817380    0.0600
     34 H34       -10.9289    5.0682   51.3520 H       1  ZINC000646817380    0.0700
     35 H35        -6.4581    2.8197   51.1703 H       1  ZINC000646817380    0.1900
     36 H36        -3.7894    4.0931   53.6953 H       1  ZINC000646817380    0.4300
     37 H37        -2.4353    4.9747   53.6004 H       1  ZINC000646817380    0.0800
     38 H38        -2.7578    3.6522   54.7562 H       1  ZINC000646817380    0.0800
     39 H39        -0.8021    5.5933   55.1427 H       1  ZINC000646817380    0.0900
     40 H40        -0.7145    3.9465   55.8498 H       1  ZINC000646817380    0.0800
     41 H41         2.3807    1.8609   54.4745 H       1  ZINC000646817380    0.0700
     42 H42         2.3139    2.8489   52.9813 H       1  ZINC000646817380    0.0800
     43 H43         4.3409    3.0121   55.2793 H       1  ZINC000646817380    0.0700
     44 H44         4.6605    2.9340   53.5151 H       1  ZINC000646817380    0.0700
     45 H45         4.7014    5.3349   54.7413 H       1  ZINC000646817380    0.0700
     46 H46         3.8721    5.1817   53.1605 H       1  ZINC000646817380    0.0700
     47 H47         1.9981    6.2278   53.0762 H       1  ZINC000646817380    0.0700
     48 H48         0.7693    6.3020   54.3618 H       1  ZINC000646817380    0.0600
     49 H49         2.2522    7.2781   54.4907 H       1  ZINC000646817380    0.0500
     50 H50         3.3826    6.4380   56.4063 H       1  ZINC000646817380    0.0600
     51 H51         1.7971    5.7448   56.8235 H       1  ZINC000646817380    0.0500
     52 H52         3.2528    4.7212   56.8579 H       1  ZINC000646817380    0.0600
     53 H53         0.0572    2.0262   53.9327 H       1  ZINC000646817380    0.0900
     54 H54         0.3733    2.7561   52.3290 H       1  ZINC000646817380    0.1000
@<TRIPOS>BOND
     1     1     2    1
     2     1    28    1
     3     1    29    1
     4     1    30    1
     5     2     3    1
     6     2     4    1
     7     2    31    1
     8     3    32    1
     9     3    33    1
    10     3    34    1
    11     4    27    1
    12     4     5    2
    13     5     6    1
    14     5    35    1
    15     6     7    1
    16     6    26    2
    17     7     8   am
    18     7    36    1
    19     8     9    2
    20     8    10    1
    21    10    11    2
    22    10    12   am
    23    12    25    1
    24    12    13    1
    25    13    14    1
    26    13    37    1
    27    13    38    1
    28    14    15    1
    29    14    39    1
    30    14    40    1
    31    15    16    1
    32    15    17    1
    33    15    25    1
    34    17    18    1
    35    17    22    1
    36    17    19    1
    37    19    20    1
    38    19    41    1
    39    19    42    1
    40    20    21    1
    41    20    43    1
    42    20    44    1
    43    21    22    1
    44    21    45    1
    45    21    46    1
    46    22    23    1
    47    22    24    1
    48    23    47    1
    49    23    48    1
    50    23    49    1
    51    24    50    1
    52    24    51    1
    53    24    52    1
    54    25    53    1
    55    25    54    1
    56    26    27    1
@<TRIPOS>SUBSTRUCTURE
     1 ZINC000646817380        1 TEMP              0 ****  ****    0 ROOT


##########                                Name:    ZINC000648570180
##########                DOCK_Rotatable_Bonds:                   4
##########                         Heavy_Atoms:                  25
##########                    Molecular_Weight:             342.484
##########                DOCK_Rotatable_Bonds:                   4
##########                       Formal_Charge:          0.00999971
##########                     HBond_Acceptors:                   5
##########                        HBond_Donors:                   0
##########                         Heavy_Atoms:                  25
##########                          Grid_Score:          -21.412844
##########                     Grid_vdw_energy:          -20.799026
##########                      Grid_es_energy:           -0.613817
##########           Internal_energy_repulsive:           94.956024

@<TRIPOS>MOLECULE
ZINC000648570180
 55 58 1 0 0
SMALL
USER_CHARGES


@<TRIPOS>ATOM
      1 C1        -10.2415    3.8807   62.3077 C.3     1  ZINC000648570180   -0.1500
      2 C2        -11.2486    4.0888   63.4407 C.3     1  ZINC000648570180   -0.0600
      3 C3        -10.6164    3.7055   64.7802 C.3     1  ZINC000648570180   -0.1400
      4 C4        -11.7094    5.5607   63.4745 C.3     1  ZINC000648570180   -0.1200
      5 C5        -13.2097    5.4804   63.8507 C.3     1  ZINC000648570180   -0.1300
      6 C6        -13.6888    4.2254   63.0797 C.3     1  ZINC000648570180   -0.1200
      7 C7        -12.5071    3.2398   63.1896 C.3     1  ZINC000648570180   -0.0700
      8 H8        -12.6680    2.5553   64.0226 H       1  ZINC000648570180    0.0800
      9 C9        -12.3582    2.4525   61.8863 C.3     1  ZINC000648570180   -0.1000
     10 H10       -11.9122    3.0711   61.1074 H       1  ZINC000648570180    0.1000
     11 C11       -11.5323    1.1582   62.1095 C.3     1  ZINC000648570180   -0.1400
     12 C12       -12.0458    0.2237   60.9939 C.3     1  ZINC000648570180    0.1200
     13 N13       -13.3760    0.7079   60.5968 N.am    1  ZINC000648570180   -0.6000
     14 C14       -14.1521    0.1715   59.6344 C.2     1  ZINC000648570180    0.5800
     15 O15       -15.2383    0.6571   59.3890 O.2     1  ZINC000648570180   -0.5200
     16 C16       -13.6796   -1.0129   58.8739 C.ar    1  ZINC000648570180    0.1600
     17 C17       -14.3912   -1.4730   57.7663 C.ar    1  ZINC000648570180   -0.2000
     18 C18       -13.9102   -2.5838   57.0867 C.ar    1  ZINC000648570180    0.1800
     19 N19       -12.8016   -3.1670   57.5064 N.ar    1  ZINC000648570180   -0.5400
     20 C20       -12.1465   -2.7064   58.5631 C.ar    1  ZINC000648570180    0.4800
     21 N21       -10.9887   -3.3467   58.9702 N.3     1  ZINC000648570180   -0.4400
     22 C22       -10.1816   -3.7813   57.8014 C.3     1  ZINC000648570180    0.0500
     23 C23        -8.7645   -3.9691   58.3992 C.3     1  ZINC000648570180   -0.1200
     24 C24        -8.6633   -2.8112   59.4187 C.3     1  ZINC000648570180   -0.1300
     25 C25       -10.1202   -2.4314   59.7420 C.3     1  ZINC000648570180    0.0400
     26 N26       -12.5677   -1.6482   59.2356 N.ar    1  ZINC000648570180   -0.5000
     27 C27       -13.7210    1.8775   61.4260 C.3     1  ZINC000648570180    0.1100
     28 H28       -10.7325    4.0501   61.3495 H       1  ZINC000648570180    0.0600
     29 H29        -9.4159    4.5831   62.4220 H       1  ZINC000648570180    0.0500
     30 H30        -9.8587    2.8608   62.3446 H       1  ZINC000648570180    0.0700
     31 H31        -9.7333    4.3204   64.9544 H       1  ZINC000648570180    0.0500
     32 H32       -11.3367    3.8689   65.5818 H       1  ZINC000648570180    0.0500
     33 H33       -10.3288    2.6544   64.7587 H       1  ZINC000648570180    0.0500
     34 H34       -11.1554    6.1165   64.2310 H       1  ZINC000648570180    0.0600
     35 H35       -11.5859    6.0216   62.4944 H       1  ZINC000648570180    0.0700
     36 H36       -13.3317    5.3436   64.9252 H       1  ZINC000648570180    0.0700
     37 H37       -13.7413    6.3691   63.5105 H       1  ZINC000648570180    0.0700
     38 H38       -14.5795    3.8068   63.5482 H       1  ZINC000648570180    0.0700
     39 H39       -13.8851    4.4707   62.0360 H       1  ZINC000648570180    0.0700
     40 H40       -10.4670    1.3546   61.9882 H       1  ZINC000648570180    0.0900
     41 H41       -11.7378    0.7344   63.0925 H       1  ZINC000648570180    0.0800
     42 H42       -11.3687    0.2584   60.1404 H       1  ZINC000648570180    0.0800
     43 H43       -12.1198   -0.7967   61.3698 H       1  ZINC000648570180    0.0700
     44 H44       -15.2953   -0.9772   57.4450 H       1  ZINC000648570180    0.1600
     45 H45       -14.4364   -2.9671   56.2250 H       1  ZINC000648570180    0.1800
     46 H46       -10.5587   -4.7230   57.4024 H       1  ZINC000648570180    0.1000
     47 H47       -10.1751   -3.0107   57.0306 H       1  ZINC000648570180    0.0500
     48 H48        -8.6822   -4.9331   58.9009 H       1  ZINC000648570180    0.0800
     49 H49        -8.0033   -3.8693   57.6255 H       1  ZINC000648570180    0.0800
     50 H50        -8.1504   -3.1452   60.3207 H       1  ZINC000648570180    0.0800
     51 H51        -8.1402   -1.9630   58.9772 H       1  ZINC000648570180    0.0700
     52 H52       -10.3100   -1.4003   59.4441 H       1  ZINC000648570180    0.0900
     53 H53       -10.3078   -2.5531   60.8088 H       1  ZINC000648570180    0.0900
     54 H54       -14.3127    1.5700   62.2882 H       1  ZINC000648570180    0.0700
     55 H55       -14.2648    2.6144   60.8351 H       1  ZINC000648570180    0.0800
@<TRIPOS>BOND
     1     1     2    1
     2     1    28    1
     3     1    29    1
     4     1    30    1
     5     2     7    1
     6     2     3    1
     7     2     4    1
     8     3    31    1
     9     3    32    1
    10     3    33    1
    11     4     5    1
    12     4    34    1
    13     4    35    1
    14     5     6    1
    15     5    36    1
    16     5    37    1
    17     6     7    1
    18     6    38    1
    19     6    39    1
    20     7     8    1
    21     7     9    1
    22     9    10    1
    23     9    27    1
    24     9    11    1
    25    11    12    1
    26    11    40    1
    27    11    41    1
    28    12    13    1
    29    12    42    1
    30    12    43    1
    31    13    14   am
    32    13    27    1
    33    14    15    2
    34    14    16    1
    35    16    26   ar
    36    16    17   ar
    37    17    18   ar
    38    17    44    1
    39    18    19   ar
    40    18    45    1
    41    19    20   ar
    42    20    21    1
    43    20    26   ar
    44    21    25    1
    45    21    22    1
    46    22    23    1
    47    22    46    1
    48    22    47    1
    49    23    24    1
    50    23    48    1
    51    23    49    1
    52    24    25    1
    53    24    50    1
    54    24    51    1
    55    25    52    1
    56    25    53    1
    57    27    54    1
    58    27    55    1
@<TRIPOS>SUBSTRUCTURE
     1 ZINC000648570180        1 TEMP              0 ****  ****    0 ROOT


##########                                Name:    ZINC000012087388
##########                DOCK_Rotatable_Bonds:                   5
##########                         Heavy_Atoms:                  29
##########                    Molecular_Weight:              418.52
##########                DOCK_Rotatable_Bonds:                   5
##########                       Formal_Charge:          -0.0499999
##########                     HBond_Acceptors:                  10
##########                        HBond_Donors:                   1
##########                         Heavy_Atoms:                  29
##########                          Grid_Score:          -21.388458
##########                     Grid_vdw_energy:          -20.311378
##########                      Grid_es_energy:           -1.077081
##########           Internal_energy_repulsive:           36.282948

@<TRIPOS>MOLECULE
ZINC000012087388
 55 58 1 0 0
SMALL
USER_CHARGES


@<TRIPOS>ATOM
      1 C1        -10.8954   -3.0243   58.1778 C.3     1  <0>        -0.6600
      2 S2        -12.6866   -2.8210   57.9760 S.o2    1  <0>         2.5100
      3 O3        -13.1849   -3.7283   57.0026 O.2     1  <0>        -0.9400
      4 O4        -13.3185   -2.6841   59.2414 O.2     1  <0>        -0.9300
      5 C5        -12.8675   -1.2367   57.2264 C.ar    1  <0>        -0.8400
      6 C6        -13.2215   -1.1214   55.8915 C.ar    1  <0>         0.3000
      7 N7        -13.3494    0.0830   55.3595 N.ar    1  <0>        -0.5800
      8 C8        -13.1432    1.1704   56.0876 C.ar    1  <0>         0.6000
      9 N9        -13.2857    2.4148   55.4989 N.pl3   1  <0>        -0.5700
     10 C10       -13.0785    3.6412   56.2810 C.3     1  <0>         0.1200
     11 C11       -12.0527    4.5197   55.5580 C.3     1  <0>        -0.1400
     12 C12       -12.5177    4.7622   54.1203 C.3     1  <0>        -0.1200
     13 C13       -12.6150    3.4255   53.3815 C.3     1  <0>        -0.1400
     14 C14       -13.6413    2.5345   54.0783 C.3     1  <0>         0.1200
     15 N15       -12.8041    1.0949   57.3663 N.ar    1  <0>        -0.5700
     16 C16       -12.6644   -0.0785   57.9606 C.ar    1  <0>         0.3200
     17 C17       -12.2786   -0.1555   59.4152 C.3     1  <0>        -0.0700
     18 C18       -11.2298    0.9160   59.7220 C.3     1  <0>        -0.1300
     19 C19       -10.8147    0.8122   61.1929 C.3     1  <0>         0.0900
     20 N20       -12.0191    0.8895   62.0308 N.am    1  <0>        -0.6100
     21 C21       -12.1056    1.7928   63.0273 C.2     1  <0>         0.5900
     22 O22       -13.1082    1.8469   63.7137 O.2     1  <0>        -0.5100
     23 C23       -10.9871    2.7139   63.2847 C.2     1  <0>        -0.0400
     24 C24       -11.0237    4.0968   63.2446 C.2     1  <0>        -0.1500
     25 C25        -9.7269    4.5106   63.5575 C.2     1  <0>         0.0000
     26 N26        -9.0024    3.4400   63.7615 N.2     1  <0>        -0.2700
     27 N27        -9.7060    2.3754   63.6167 N.pl3   1  <0>        -0.3900
     28 C28       -13.1276   -0.0365   61.7614 C.3     1  <0>         0.1100
     29 C29       -13.5168    0.0769   60.2842 C.3     1  <0>        -0.1200
     30 H30       -10.4123   -2.9785   57.2018 H       1  <0>         0.1400
     31 H31       -10.5084   -2.2272   58.8126 H       1  <0>         0.1300
     32 H32       -10.6891   -3.9896   58.6403 H       1  <0>         0.1400
     33 H33       -13.3906   -2.0042   55.2927 H       1  <0>         0.1900
     34 H34       -14.0216    4.1802   56.3721 H       1  <0>         0.0700
     35 H35       -12.7053    3.3837   57.2722 H       1  <0>         0.1000
     36 H36       -11.9611    5.4740   56.0767 H       1  <0>         0.0800
     37 H37       -11.0858    4.0165   55.5477 H       1  <0>         0.0700
     38 H38       -13.4958    5.2431   54.1313 H       1  <0>         0.0700
     39 H39       -11.8018    5.4073   53.6110 H       1  <0>         0.0700
     40 H40       -12.9236    3.6009   52.3510 H       1  <0>         0.0800
     41 H41       -11.6428    2.9326   53.3917 H       1  <0>         0.0700
     42 H42       -13.6420    1.5475   53.6159 H       1  <0>         0.1000
     43 H43       -14.6317    2.9815   53.9919 H       1  <0>         0.0700
     44 H44       -11.8643   -1.1406   59.6294 H       1  <0>         0.1000
     45 H45       -10.3575    0.7638   59.0862 H       1  <0>         0.0800
     46 H46       -11.6516    1.9030   59.5318 H       1  <0>         0.0900
     47 H47       -10.3108   -0.1390   61.3641 H       1  <0>         0.0800
     48 H48       -10.1430    1.6338   61.4419 H       1  <0>         0.0900
     49 H49       -11.8743    4.7230   63.0192 H       1  <0>         0.1700
     50 H50        -9.3830    5.5325   63.6196 H       1  <0>         0.1900
     51 H51        -9.3764    1.4690   63.7203 H       1  <0>         0.4400
     52 H52       -12.8124   -1.0569   61.9791 H       1  <0>         0.0800
     53 H53       -13.9821    0.2252   62.3856 H       1  <0>         0.1000
     54 H54       -13.9171    1.0716   60.0886 H       1  <0>         0.0800
     55 H55       -14.2724   -0.6726   60.0485 H       1  <0>         0.0900
@<TRIPOS>BOND
     1     1     2    1
     2     1    30    1
     3     1    31    1
     4     1    32    1
     5     2     3    2
     6     2     4    2
     7     2     5    1
     8     5    16   ar
     9     5     6   ar
    10     6     7   ar
    11     6    33    1
    12     7     8   ar
    13     8     9    1
    14     8    15   ar
    15     9    14    1
    16     9    10    1
    17    10    11    1
    18    10    34    1
    19    10    35    1
    20    11    12    1
    21    11    36    1
    22    11    37    1
    23    12    13    1
    24    12    38    1
    25    12    39    1
    26    13    14    1
    27    13    40    1
    28    13    41    1
    29    14    42    1
    30    14    43    1
    31    15    16   ar
    32    16    17    1
    33    17    29    1
    34    17    18    1
    35    17    44    1
    36    18    19    1
    37    18    45    1
    38    18    46    1
    39    19    20    1
    40    19    47    1
    41    19    48    1
    42    20    21   am
    43    20    28    1
    44    21    22    2
    45    21    23    1
    46    23    27    1
    47    23    24    2
    48    24    25    1
    49    24    49    1
    50    25    26    2
    51    25    50    1
    52    26    27    1
    53    27    51    1
    54    28    29    1
    55    28    52    1
    56    28    53    1
    57    29    54    1
    58    29    55    1
@<TRIPOS>SUBSTRUCTURE
     1 <0>         1 TEMP              0 ****  ****    0 ROOT


##########                                Name:    ZINC000618094467
##########                DOCK_Rotatable_Bonds:                   5
##########                         Heavy_Atoms:                  27
##########                    Molecular_Weight:             370.492
##########                DOCK_Rotatable_Bonds:                   5
##########                       Formal_Charge:                0.03
##########                     HBond_Acceptors:                   5
##########                        HBond_Donors:                   0
##########                         Heavy_Atoms:                  27
##########                          Grid_Score:          -21.236900
##########                     Grid_vdw_energy:          -17.510128
##########                      Grid_es_energy:           -3.726773
##########           Internal_energy_repulsive:           85.475349

@<TRIPOS>MOLECULE
ZINC000618094467
 57 59 1 0 0
SMALL
USER_CHARGES


@<TRIPOS>ATOM
      1 C1         -9.1962    2.5583   64.6308 C.3     1  ZINC000618094467   -0.1500
      2 C2         -8.9321    1.0737   64.8898 C.3     1  ZINC000618094467   -0.1000
      3 C3         -8.9235    0.3175   63.5598 C.3     1  ZINC000618094467   -0.1100
      4 H4         -8.1391    0.7194   62.9184 H       1  ZINC000618094467    0.1000
      5 C5         -8.6594   -1.1672   63.8189 C.3     1  ZINC000618094467   -0.1500
      6 C6        -10.2593    0.4791   62.8812 C.2     1  ZINC000618094467    0.5200
      7 O7        -11.2271    0.8287   63.5231 O.2     1  ZINC000618094467   -0.5000
      8 N8        -10.3785    0.2353   61.5611 N.am    1  ZINC000618094467   -0.6100
      9 C9         -9.2274   -0.1886   60.7568 C.3     1  ZINC000618094467    0.1400
     10 C10        -9.6325   -1.3220   59.8483 C.ar    1  ZINC000618094467   -0.1000
     11 C11        -8.6265   -2.0154   59.1899 C.ar    1  ZINC000618094467   -0.1100
     12 C12        -8.9351   -3.0558   58.3374 C.ar    1  ZINC000618094467   -0.1200
     13 C13       -10.2564   -3.4087   58.1371 C.ar    1  ZINC000618094467   -0.1100
     14 C14       -11.2569   -2.7229   58.7941 C.ar    1  ZINC000618094467   -0.1200
     15 C15       -10.9488   -1.6789   59.6576 C.ar    1  ZINC000618094467   -0.0600
     16 C16       -12.0911   -0.9943   60.3608 C.3     1  ZINC000618094467   -0.0800
     17 C17       -11.6705    0.3778   60.8698 C.3     1  ZINC000618094467    0.1200
     18 H18       -11.5605    1.0646   60.0306 H       1  ZINC000618094467    0.1000
     19 C19       -12.7070    0.9057   61.8280 C.2     1  ZINC000618094467    0.5500
     20 O20       -13.3469    0.1365   62.5134 O.2     1  ZINC000618094467   -0.5200
     21 N21       -12.9228    2.2327   61.9232 N.am    1  ZINC000618094467   -0.6100
     22 C22       -12.1570    3.1713   61.0930 C.3     1  ZINC000618094467    0.1200
     23 C23       -13.1374    4.0068   60.2599 C.3     1  ZINC000618094467   -0.1600
     24 H24       -12.6056    4.8319   59.7859 H       1  ZINC000618094467    0.1100
     25 C25       -13.7827    3.1263   59.1878 C.3     1  ZINC000618094467   -0.1400
     26 C26       -14.2051    4.5520   61.1828 C.2     1  ZINC000618094467    0.3700
     27 O27       -14.4551    5.7332   61.2096 O.2     1  ZINC000618094467   -0.4400
     28 C28       -14.9524    3.5816   62.0708 C.3     1  ZINC000618094467   -0.1600
     29 H29       -15.5633    2.9189   61.4579 H       1  ZINC000618094467    0.1100
     30 C30       -15.8467    4.3554   63.0415 C.3     1  ZINC000618094467   -0.1400
     31 C31       -13.9308    2.7564   62.8542 C.3     1  ZINC000618094467    0.1400
     32 H32       -10.1625    2.6752   64.1400 H       1  ZINC000618094467    0.0500
     33 H33        -9.2024    3.0969   65.5784 H       1  ZINC000618094467    0.0600
     34 H34        -8.4120    2.9603   63.9893 H       1  ZINC000618094467    0.0600
     35 H35        -7.9658    0.9568   65.3805 H       1  ZINC000618094467    0.0700
     36 H36        -9.7164    0.6716   65.5312 H       1  ZINC000618094467    0.0700
     37 H37        -9.3611   -1.5358   64.5670 H       1  ZINC000618094467    0.0700
     38 H38        -8.7892   -1.7263   62.8923 H       1  ZINC000618094467    0.0700
     39 H39        -7.6398   -1.2969   64.1817 H       1  ZINC000618094467    0.0700
     40 H40        -8.8762    0.6502   60.1558 H       1  ZINC000618094467    0.0900
     41 H41        -8.4264   -0.5215   61.4170 H       1  ZINC000618094467    0.1100
     42 H42        -7.5942   -1.7384   59.3455 H       1  ZINC000618094467    0.1300
     43 H43        -8.1476   -3.5919   57.8286 H       1  ZINC000618094467    0.1300
     44 H44       -10.5049   -4.2191   57.4678 H       1  ZINC000618094467    0.1200
     45 H45       -12.2887   -2.9996   58.6355 H       1  ZINC000618094467    0.1200
     46 H46       -12.9234   -0.8809   59.6662 H       1  ZINC000618094467    0.0900
     47 H47       -12.4104   -1.6055   61.2050 H       1  ZINC000618094467    0.1000
     48 H48       -11.5685    3.8288   61.7328 H       1  ZINC000618094467    0.0700
     49 H49       -11.4948    2.6155   60.4291 H       1  ZINC000618094467    0.0900
     50 H50       -14.3913    2.3588   59.6659 H       1  ZINC000618094467    0.0600
     51 H51       -14.4123    3.7405   58.5440 H       1  ZINC000618094467    0.0600
     52 H52       -13.0042    2.6527   58.5897 H       1  ZINC000618094467    0.0700
     53 H53       -16.5622    4.9539   62.4777 H       1  ZINC000618094467    0.0700
     54 H54       -16.3834    3.6532   63.6796 H       1  ZINC000618094467    0.0700
     55 H55       -15.2318    5.0103   63.6587 H       1  ZINC000618094467    0.0600
     56 H56       -14.4348    1.9281   63.3521 H       1  ZINC000618094467    0.1100
     57 H57       -13.4419    3.3882   63.5956 H       1  ZINC000618094467    0.0700
@<TRIPOS>BOND
     1     1     2    1
     2     1    32    1
     3     1    33    1
     4     1    34    1
     5     2     3    1
     6     2    35    1
     7     2    36    1
     8     3     4    1
     9     3     5    1
    10     3     6    1
    11     5    37    1
    12     5    38    1
    13     5    39    1
    14     6     7    2
    15     6     8   am
    16     8    17    1
    17     8     9    1
    18     9    10    1
    19     9    40    1
    20     9    41    1
    21    10    15   ar
    22    10    11   ar
    23    11    12   ar
    24    11    42    1
    25    12    13   ar
    26    12    43    1
    27    13    14   ar
    28    13    44    1
    29    14    15   ar
    30    14    45    1
    31    15    16    1
    32    16    17    1
    33    16    46    1
    34    16    47    1
    35    17    18    1
    36    17    19    1
    37    19    20    2
    38    19    21   am
    39    21    31    1
    40    21    22    1
    41    22    23    1
    42    22    48    1
    43    22    49    1
    44    23    24    1
    45    23    25    1
    46    23    26    1
    47    25    50    1
    48    25    51    1
    49    25    52    1
    50    26    27    2
    51    26    28    1
    52    28    29    1
    53    28    30    1
    54    28    31    1
    55    30    53    1
    56    30    54    1
    57    30    55    1
    58    31    56    1
    59    31    57    1
@<TRIPOS>SUBSTRUCTURE
     1 ZINC000618094467        1 TEMP              0 ****  ****    0 ROOT


##########                                Name:    ZINC001011676549
##########                DOCK_Rotatable_Bonds:                   6
##########                         Heavy_Atoms:                  24
##########                    Molecular_Weight:             330.387
##########                DOCK_Rotatable_Bonds:                   6
##########                       Formal_Charge:        -1.49012e-07
##########                     HBond_Acceptors:                   7
##########                        HBond_Donors:                   1
##########                         Heavy_Atoms:                  24
##########                          Grid_Score:          -21.197325
##########                     Grid_vdw_energy:          -20.253622
##########                      Grid_es_energy:           -0.943702
##########           Internal_energy_repulsive:           18.687534

@<TRIPOS>MOLECULE
ZINC001011676549
 46 48 1 0 0
SMALL
USER_CHARGES


@<TRIPOS>ATOM
      1 C1         -9.9095    1.7131   59.8333 C.3     1  ZINC001011676549   -0.1700
      2 C2        -10.6055    1.9450   61.1759 C.3     1  ZINC001011676549    0.1300
      3 H3        -11.5850    2.3945   61.0128 H       1  ZINC001011676549    0.0900
      4 C4        -10.7614    0.6046   61.9247 C.3     1  ZINC001011676549    0.1400
      5 H5        -11.6983    0.5803   62.4811 H       1  ZINC001011676549    0.1100
      6 N6        -10.6856   -0.5222   60.9915 N.am    1  ZINC001011676549   -0.7200
      7 C7        -11.8147   -1.1272   60.5724 C.2     1  ZINC001011676549    0.5200
      8 O8        -12.8933   -0.7397   60.9690 O.2     1  ZINC001011676549   -0.5300
      9 C9        -11.7368   -2.2852   59.6112 C.3     1  ZINC001011676549   -0.0900
     10 C10       -13.0334   -2.3952   58.8511 C.ar    1  ZINC001011676549   -0.1800
     11 C11       -13.2072   -1.7348   57.6450 C.ar    1  ZINC001011676549    0.1600
     12 N12       -14.3596   -1.8548   57.0057 N.ar    1  ZINC001011676549   -0.5200
     13 C13       -15.3339   -2.5902   57.5025 C.ar    1  ZINC001011676549    0.3000
     14 N14       -15.2046   -3.2321   58.6461 N.ar    1  ZINC001011676549   -0.5200
     15 C15       -14.0788   -3.1637   59.3384 C.ar    1  ZINC001011676549    0.1600
     16 C16        -9.5483    0.6039   62.8921 C.3     1  ZINC001011676549   -0.1400
     17 C17        -9.4446    2.1045   63.2620 C.3     1  ZINC001011676549    0.1000
     18 N18        -9.7848    2.8267   62.0188 N.am    1  ZINC001011676549   -0.6100
     19 C19        -9.4029    4.0817   61.7099 C.2     1  ZINC001011676549    0.5800
     20 O20        -8.7180    4.7179   62.4880 O.2     1  ZINC001011676549   -0.5300
     21 C21        -9.8144    4.6821   60.4315 C.2     1  ZINC001011676549   -0.1400
     22 C22       -11.1027    4.8365   60.1848 C.2     1  ZINC001011676549   -0.1500
     23 C23       -11.6155    5.4318   58.9039 C.3     1  ZINC001011676549    0.0900
     24 O24       -10.5581    6.1042   58.2172 O.3     1  ZINC001011676549   -0.3800
     25 C25        -9.3827    5.2986   58.0686 C.3     1  ZINC001011676549    0.0600
     26 C26        -8.7534    5.1048   59.4527 C.3     1  ZINC001011676549   -0.1100
     27 H27        -8.9262    1.2751   60.0046 H       1  ZINC001011676549    0.0600
     28 H28       -10.5086    1.0347   59.2259 H       1  ZINC001011676549    0.0700
     29 H29        -9.7980    2.6642   59.3128 H       1  ZINC001011676549    0.0800
     30 H30        -9.8229   -0.8329   60.6754 H       1  ZINC001011676549    0.4100
     31 H31       -10.9178   -2.1214   58.9107 H       1  ZINC001011676549    0.1100
     32 H32       -11.5616   -3.2069   60.1660 H       1  ZINC001011676549    0.1100
     33 H33       -12.4129   -1.1303   57.2326 H       1  ZINC001011676549    0.1700
     34 H34       -16.2633   -2.6687   56.9578 H       1  ZINC001011676549    0.2000
     35 H35       -13.9791   -3.6926   60.2748 H       1  ZINC001011676549    0.1700
     36 H36        -9.7525   -0.0028   63.7743 H       1  ZINC001011676549    0.0900
     37 H37        -8.6452    0.2630   62.3859 H       1  ZINC001011676549    0.0800
     38 H38       -10.1569    2.3513   64.0494 H       1  ZINC001011676549    0.0800
     39 H39        -8.4301    2.3483   63.5772 H       1  ZINC001011676549    0.0800
     40 H40       -11.8156    4.5224   60.9329 H       1  ZINC001011676549    0.1200
     41 H41       -12.0114    4.6386   58.2697 H       1  ZINC001011676549    0.0700
     42 H42       -12.4104    6.1431   59.1286 H       1  ZINC001011676549    0.1100
     43 H43        -9.6529    4.3308   57.6462 H       1  ZINC001011676549    0.0600
     44 H44        -8.6735    5.8030   57.4123 H       1  ZINC001011676549    0.1000
     45 H45        -8.3009    6.0408   59.7800 H       1  ZINC001011676549    0.0900
     46 H46        -7.9874    4.3313   59.3981 H       1  ZINC001011676549    0.0900
@<TRIPOS>BOND
     1     1     2    1
     2     1    27    1
     3     1    28    1
     4     1    29    1
     5     2     3    1
     6     2    18    1
     7     2     4    1
     8     4     5    1
     9     4     6    1
    10     4    16    1
    11     6     7   am
    12     6    30    1
    13     7     8    2
    14     7     9    1
    15     9    10    1
    16     9    31    1
    17     9    32    1
    18    10    15   ar
    19    10    11   ar
    20    11    12   ar
    21    11    33    1
    22    12    13   ar
    23    13    14   ar
    24    13    34    1
    25    14    15   ar
    26    15    35    1
    27    16    17    1
    28    16    36    1
    29    16    37    1
    30    17    18    1
    31    17    38    1
    32    17    39    1
    33    18    19   am
    34    19    20    2
    35    19    21    1
    36    21    26    1
    37    21    22    2
    38    22    23    1
    39    22    40    1
    40    23    24    1
    41    23    41    1
    42    23    42    1
    43    24    25    1
    44    25    26    1
    45    25    43    1
    46    25    44    1
    47    26    45    1
    48    26    46    1
@<TRIPOS>SUBSTRUCTURE
     1 ZINC001011676549        1 TEMP              0 ****  ****    0 ROOT


##########                                Name:    ZINC000482910431
##########                DOCK_Rotatable_Bonds:                   7
##########                         Heavy_Atoms:                  29
##########                    Molecular_Weight:             414.867
##########                DOCK_Rotatable_Bonds:                   7
##########                       Formal_Charge:          -0.0300001
##########                     HBond_Acceptors:                   8
##########                        HBond_Donors:                   2
##########                         Heavy_Atoms:                  29
##########                          Grid_Score:          -21.194458
##########                     Grid_vdw_energy:          -22.298946
##########                      Grid_es_energy:            1.104487
##########           Internal_energy_repulsive:          181.861801

@<TRIPOS>MOLECULE
ZINC000482910431
 49 51 1 0 0
SMALL
USER_CHARGES


@<TRIPOS>ATOM
      1 C1        -13.4887    4.9720   51.8088 C.3     1  ZINC000482910431   -0.1500
      2 C2        -13.5478    3.4749   52.1186 C.3     1  ZINC000482910431    0.0800
      3 C3        -14.5183    2.7922   51.1526 C.3     1  ZINC000482910431   -0.1400
      4 C4        -12.2068    2.8882   51.9630 C.1     1  ZINC000482910431    0.2100
      5 N5        -11.1719    2.4355   51.8428 N.1     1  ZINC000482910431   -0.4300
      6 C6        -14.0231    3.2732   53.5343 C.ar    1  ZINC000482910431   -0.1000
      7 C7        -13.5965    2.1729   54.2551 C.ar    1  ZINC000482910431   -0.0900
      8 C8        -14.0299    1.9854   55.5530 C.ar    1  ZINC000482910431   -0.1200
      9 C9        -14.8950    2.9031   56.1340 C.ar    1  ZINC000482910431    0.1700
     10 N10       -15.3357    2.7162   57.4491 N.am    1  ZINC000482910431   -0.6800
     11 C11       -14.9201    1.6448   58.1531 C.2     1  ZINC000482910431    0.7100
     12 O12       -14.1625    0.8405   57.6457 O.2     1  ZINC000482910431   -0.5500
     13 N13       -15.3445    1.4648   59.4197 N.am    1  ZINC000482910431   -0.7300
     14 C14       -14.8942    0.2992   60.1844 C.3     1  ZINC000482910431    0.1400
     15 H15       -15.1348    0.4208   61.2405 H       1  ZINC000482910431    0.1400
     16 C16       -15.5356   -0.9934   59.6285 C.3     1  ZINC000482910431   -0.1400
     17 C17       -14.3850   -2.0113   59.7918 C.3     1  ZINC000482910431    0.0900
     18 N18       -13.1524   -1.2149   59.7749 N.am    1  ZINC000482910431   -0.5600
     19 C19       -11.8746   -1.7419   59.5544 C.ar    1  ZINC000482910431    0.2000
     20 C20       -10.8117   -1.3466   60.3557 C.ar    1  ZINC000482910431   -0.1600
     21 C21        -9.5510   -1.8675   60.1371 C.ar    1  ZINC000482910431   -0.0500
     22 C22        -9.3458   -2.7829   59.1207 C.ar    1  ZINC000482910431   -0.1000
     23 Cl23       -7.7601   -3.4354   58.8490 Cl      1  ZINC000482910431   -0.0500
     24 C24       -10.4046   -3.1804   58.3191 C.ar    1  ZINC000482910431    0.1400
     25 F25       -10.2020   -4.0750   57.3272 F       1  ZINC000482910431   -0.1200
     26 C26       -11.6693   -2.6653   58.5379 C.ar    1  ZINC000482910431   -0.1900
     27 C27       -13.4075    0.0878   60.0010 C.2     1  ZINC000482910431    0.5000
     28 O28       -12.5683    0.9623   60.0467 O.2     1  ZINC000482910431   -0.4800
     29 C29       -15.3217    4.0070   55.4075 C.ar    1  ZINC000482910431   -0.1400
     30 C30       -14.8805    4.1916   54.1119 C.ar    1  ZINC000482910431   -0.0900
     31 H31       -14.4817    5.4064   51.9240 H       1  ZINC000482910431    0.0800
     32 H32       -12.7972    5.4584   52.4971 H       1  ZINC000482910431    0.0700
     33 H33       -13.1448    5.1179   50.7848 H       1  ZINC000482910431    0.0700
     34 H34       -14.1745    2.9381   50.1285 H       1  ZINC000482910431    0.0700
     35 H35       -14.5605    1.7256   51.3732 H       1  ZINC000482910431    0.0700
     36 H36       -15.5113    3.2266   51.2678 H       1  ZINC000482910431    0.0800
     37 H37       -12.9238    1.4593   53.8026 H       1  ZINC000482910431    0.1400
     38 H38       -13.6965    1.1256   56.1153 H       1  ZINC000482910431    0.1400
     39 H39       -15.9402    3.3579   57.8538 H       1  ZINC000482910431    0.4100
     40 H40       -15.9480    2.1070   59.8248 H       1  ZINC000482910431    0.4000
     41 H41       -16.4019   -1.2854   60.2221 H       1  ZINC000482910431    0.1100
     42 H42       -15.8055   -0.8749   58.5792 H       1  ZINC000482910431    0.1000
     43 H43       -14.4801   -2.5389   60.7408 H       1  ZINC000482910431    0.0900
     44 H44       -14.3877   -2.7197   58.9635 H       1  ZINC000482910431    0.1000
     45 H45       -10.9705   -0.6316   61.1494 H       1  ZINC000482910431    0.1700
     46 H46        -8.7245   -1.5593   60.7603 H       1  ZINC000482910431    0.1500
     47 H47       -12.4946   -2.9749   57.9139 H       1  ZINC000482910431    0.1500
     48 H48       -15.9945    4.7225   55.8566 H       1  ZINC000482910431    0.1300
     49 H49       -15.2116    5.0502   53.5464 H       1  ZINC000482910431    0.1300
@<TRIPOS>BOND
     1     1     2    1
     2     1    31    1
     3     1    32    1
     4     1    33    1
     5     2     3    1
     6     2     4    1
     7     2     6    1
     8     3    34    1
     9     3    35    1
    10     3    36    1
    11     4     5    3
    12     6    30   ar
    13     6     7   ar
    14     7     8   ar
    15     7    37    1
    16     8     9   ar
    17     8    38    1
    18     9    10    1
    19     9    29   ar
    20    10    11   am
    21    10    39    1
    22    11    12    2
    23    11    13   am
    24    13    14    1
    25    13    40    1
    26    14    15    1
    27    14    27    1
    28    14    16    1
    29    16    17    1
    30    16    41    1
    31    16    42    1
    32    17    18    1
    33    17    43    1
    34    17    44    1
    35    18    19    1
    36    18    27   am
    37    19    26   ar
    38    19    20   ar
    39    20    21   ar
    40    20    45    1
    41    21    22   ar
    42    21    46    1
    43    22    23    1
    44    22    24   ar
    45    24    25    1
    46    24    26   ar
    47    26    47    1
    48    27    28    2
    49    29    30   ar
    50    29    48    1
    51    30    49    1
@<TRIPOS>SUBSTRUCTURE
     1 ZINC000482910431        1 TEMP              0 ****  ****    0 ROOT


##########                                Name:    ZINC000431691749
##########                DOCK_Rotatable_Bonds:                   4
##########                         Heavy_Atoms:                  24
##########                    Molecular_Weight:             328.454
##########                DOCK_Rotatable_Bonds:                   4
##########                       Formal_Charge:         -0.00999957
##########                     HBond_Acceptors:                   4
##########                        HBond_Donors:                   0
##########                         Heavy_Atoms:                  24
##########                          Grid_Score:          -21.130911
##########                     Grid_vdw_energy:          -19.525551
##########                      Grid_es_energy:           -1.605360
##########           Internal_energy_repulsive:          107.358017

@<TRIPOS>MOLECULE
ZINC000431691749
 52 54 1 0 0
SMALL
USER_CHARGES


@<TRIPOS>ATOM
      1 C1        -11.6444    3.1986   55.9864 C.3     1  ZINC000431691749   -0.1200
      2 C2        -11.6693    3.6530   57.4230 C.ar    1  ZINC000431691749   -0.0800
      3 C3        -11.6581    5.0025   57.7212 C.ar    1  ZINC000431691749   -0.1200
      4 C4        -11.6809    5.4195   59.0392 C.ar    1  ZINC000431691749   -0.1100
      5 C5        -11.7155    4.4868   60.0586 C.ar    1  ZINC000431691749   -0.1100
      6 C6        -11.7277    3.1369   59.7604 C.ar    1  ZINC000431691749   -0.0800
      7 C7        -11.7650    2.1199   60.8719 C.3     1  ZINC000431691749    0.2000
      8 H8        -12.6129    2.3263   61.5248 H       1  ZINC000431691749    0.1100
      9 N9        -11.9036    0.7778   60.3012 N.am    1  ZINC000431691749   -0.5700
     10 C10       -10.9886    0.1978   59.4996 C.2     1  ZINC000431691749    0.5200
     11 O11        -9.9354    0.6702   59.1287 O.2     1  ZINC000431691749   -0.4400
     12 C12       -11.5495   -1.1686   59.1588 C.3     1  ZINC000431691749    0.0900
     13 H13       -11.7062   -1.2617   58.0842 H       1  ZINC000431691749    0.1300
     14 C14       -10.6191   -2.2735   59.6632 C.3     1  ZINC000431691749   -0.1500
     15 N15       -12.8363   -1.2031   59.8752 N.am    1  ZINC000431691749   -0.6000
     16 C16       -13.7997   -2.3066   59.8916 C.3     1  ZINC000431691749    0.1500
     17 C17       -15.2227   -1.8881   59.4855 C.3     1  ZINC000431691749   -0.1600
     18 C18       -14.8145   -2.1955   58.0351 C.3     1  ZINC000431691749   -0.1400
     19 C19       -13.7734   -3.1662   58.6168 C.3     1  ZINC000431691749   -0.1500
     20 C20       -12.9515   -0.0259   60.5159 C.2     1  ZINC000431691749    0.7000
     21 O21       -13.9045    0.2769   61.2068 O.2     1  ZINC000431691749   -0.5300
     22 C22       -10.4681    2.1993   61.6796 C.3     1  ZINC000431691749   -0.0700
     23 C23       -10.6422    3.1958   62.8274 C.3     1  ZINC000431691749   -0.1400
     24 C24       -10.1366    0.8184   62.2490 C.3     1  ZINC000431691749   -0.1400
     25 C25        -9.3284    2.6629   60.7701 C.3     1  ZINC000431691749   -0.1600
     26 C26       -11.7092    2.7202   58.4427 C.ar    1  ZINC000431691749   -0.1100
     27 H27       -12.6656    3.1071   55.6165 H       1  ZINC000431691749    0.0700
     28 H28       -11.1035    3.9283   55.3838 H       1  ZINC000431691749    0.0700
     29 H29       -11.1459    2.2315   55.9199 H       1  ZINC000431691749    0.0700
     30 H30       -11.6310    5.7314   56.9246 H       1  ZINC000431691749    0.1200
     31 H31       -11.6714    6.4741   59.2722 H       1  ZINC000431691749    0.1200
     32 H32       -11.7327    4.8125   61.0882 H       1  ZINC000431691749    0.1100
     33 H33       -10.4940   -2.1789   60.7418 H       1  ZINC000431691749    0.0700
     34 H34       -11.0520   -3.2468   59.4316 H       1  ZINC000431691749    0.0800
     35 H35        -9.6487   -2.1822   59.1754 H       1  ZINC000431691749    0.0800
     36 H36       -13.7604   -2.8892   60.8120 H       1  ZINC000431691749    0.1000
     37 H37       -15.9989   -2.5496   59.8702 H       1  ZINC000431691749    0.0900
     38 H38       -15.4358   -0.8343   59.6652 H       1  ZINC000431691749    0.0700
     39 H39       -15.5959   -2.6883   57.4568 H       1  ZINC000431691749    0.0700
     40 H40       -14.3752   -1.3440   57.5154 H       1  ZINC000431691749    0.0800
     41 H41       -12.8166   -3.1444   58.0951 H       1  ZINC000431691749    0.1000
     42 H42       -14.1534   -4.1772   58.7640 H       1  ZINC000431691749    0.0900
     43 H43       -11.4541    2.8655   63.4753 H       1  ZINC000431691749    0.0600
     44 H44        -9.7183    3.2523   63.4028 H       1  ZINC000431691749    0.0600
     45 H45       -10.8784    4.1796   62.4217 H       1  ZINC000431691749    0.0600
     46 H46       -10.0126    0.1084   61.4313 H       1  ZINC000431691749    0.0500
     47 H47        -9.2126    0.8749   62.8245 H       1  ZINC000431691749    0.0600
     48 H48       -10.9485    0.4881   62.8969 H       1  ZINC000431691749    0.0500
     49 H49        -9.7381    3.2318   59.9356 H       1  ZINC000431691749    0.0700
     50 H50        -8.6437    3.2928   61.3380 H       1  ZINC000431691749    0.0400
     51 H51        -8.7915    1.7942   60.3889 H       1  ZINC000431691749    0.1000
     52 H52       -11.7188    1.6656   58.2096 H       1  ZINC000431691749    0.1300
@<TRIPOS>BOND
     1     1     2    1
     2     1    27    1
     3     1    28    1
     4     1    29    1
     5     2    26   ar
     6     2     3   ar
     7     3     4   ar
     8     3    30    1
     9     4     5   ar
    10     4    31    1
    11     5     6   ar
    12     5    32    1
    13     6     7    1
    14     6    26   ar
    15     7     8    1
    16     7     9    1
    17     7    22    1
    18     9    20   am
    19     9    10   am
    20    10    11    2
    21    10    12    1
    22    12    13    1
    23    12    14    1
    24    12    15    1
    25    14    33    1
    26    14    34    1
    27    14    35    1
    28    15    16    1
    29    15    20   am
    30    16    19    1
    31    16    17    1
    32    16    36    1
    33    17    18    1
    34    17    37    1
    35    17    38    1
    36    18    19    1
    37    18    39    1
    38    18    40    1
    39    19    41    1
    40    19    42    1
    41    20    21    2
    42    22    23    1
    43    22    24    1
    44    22    25    1
    45    23    43    1
    46    23    44    1
    47    23    45    1
    48    24    46    1
    49    24    47    1
    50    24    48    1
    51    25    49    1
    52    25    50    1
    53    25    51    1
    54    26    52    1
@<TRIPOS>SUBSTRUCTURE
     1 ZINC000431691749        1 TEMP              0 ****  ****    0 ROOT


##########                                Name:    ZINC001179023006
##########                DOCK_Rotatable_Bonds:                   3
##########                         Heavy_Atoms:                  25
##########                    Molecular_Weight:             340.465
##########                DOCK_Rotatable_Bonds:                   3
##########                       Formal_Charge:          -0.0100005
##########                     HBond_Acceptors:                   4
##########                        HBond_Donors:                   1
##########                         Heavy_Atoms:                  25
##########                          Grid_Score:          -21.108213
##########                     Grid_vdw_energy:          -18.901491
##########                      Grid_es_energy:           -2.206723
##########           Internal_energy_repulsive:          140.107285

@<TRIPOS>MOLECULE
ZINC001179023006
 53 56 1 0 0
SMALL
USER_CHARGES


@<TRIPOS>ATOM
      1 C1        -10.8466    2.9475   60.3228 C.3     1  ZINC001179023006   -0.1500
      2 C2        -11.6048    3.7515   61.3808 C.3     1  ZINC001179023006   -0.1100
      3 C3        -13.0180    3.1858   61.5353 C.3     1  ZINC001179023006   -0.1100
      4 C4        -13.0264    1.7408   61.9627 C.2     1  ZINC001179023006    0.5400
      5 O5        -13.2429    1.4522   63.1206 O.2     1  ZINC001179023006   -0.5400
      6 N6        -12.7937    0.7690   61.0582 N.am    1  ZINC001179023006   -0.5900
      7 C7        -12.5359    1.1017   59.6507 C.3     1  ZINC001179023006    0.1000
      8 C8        -13.4982    0.3113   58.7671 C.3     1  ZINC001179023006   -0.1200
      9 C9        -13.3654   -1.1853   59.0846 C.3     1  ZINC001179023006   -0.0500
     10 C10       -13.7632   -1.4118   60.5507 C.3     1  ZINC001179023006   -0.1100
     11 C11       -12.7984   -0.6445   61.4588 C.3     1  ZINC001179023006    0.0900
     12 C12       -14.3111   -1.9691   58.1884 C.3     1  ZINC001179023006   -0.0800
     13 C13       -14.0490   -1.7004   56.7381 C.ar    1  ZINC001179023006   -0.0700
     14 C14       -14.9605   -0.9231   56.0306 C.ar    1  ZINC001179023006   -0.1100
     15 C15       -14.7156   -0.6053   54.7092 C.ar    1  ZINC001179023006   -0.1100
     16 C16       -13.5683   -1.0579   54.0851 C.ar    1  ZINC001179023006   -0.1200
     17 C17       -12.6707   -1.8426   54.7871 C.ar    1  ZINC001179023006   -0.1000
     18 C18       -12.9316   -2.1618   56.1078 C.ar    1  ZINC001179023006   -0.1100
     19 C19       -11.9714   -3.0399   56.8690 C.3     1  ZINC001179023006    0.1400
     20 N20       -11.3643   -2.3325   57.9744 N.am    1  ZINC001179023006   -0.7000
     21 C21       -11.9412   -1.6025   58.8940 C.2     1  ZINC001179023006    0.5200
     22 O22       -11.1844   -1.1884   59.7463 O.2     1  ZINC001179023006   -0.5500
     23 C23       -13.9334    3.4785   60.3347 C.3     1  ZINC001179023006   -0.1200
     24 C24       -15.0567    3.7339   61.3560 C.3     1  ZINC001179023006   -0.1400
     25 C25       -13.9517    4.0800   62.3680 C.3     1  ZINC001179023006   -0.1300
     26 H26        -9.8277    3.3258   60.2401 H       1  ZINC001179023006    0.0600
     27 H27       -10.8217    1.8972   60.6133 H       1  ZINC001179023006    0.0500
     28 H28       -11.3501    3.0466   59.3611 H       1  ZINC001179023006    0.0600
     29 H29       -11.6630    4.7950   61.0715 H       1  ZINC001179023006    0.0700
     30 H30       -11.0801    3.6837   62.3338 H       1  ZINC001179023006    0.0700
     31 H31       -12.6908    2.1690   59.4933 H       1  ZINC001179023006    0.0900
     32 H32       -11.5096    0.8381   59.3950 H       1  ZINC001179023006    0.0800
     33 H33       -13.2565    0.4838   57.7183 H       1  ZINC001179023006    0.0800
     34 H34       -14.5201    0.6358   58.9635 H       1  ZINC001179023006    0.0800
     35 H35       -13.7122   -2.4758   60.7816 H       1  ZINC001179023006    0.0800
     36 H36       -14.7794   -1.0524   60.7127 H       1  ZINC001179023006    0.0800
     37 H37       -11.7946   -1.0566   61.3565 H       1  ZINC001179023006    0.1200
     38 H38       -13.1264   -0.7294   62.4949 H       1  ZINC001179023006    0.0800
     39 H39       -14.1831   -3.0343   58.3814 H       1  ZINC001179023006    0.0800
     40 H40       -15.3378   -1.6876   58.4223 H       1  ZINC001179023006    0.0900
     41 H41       -15.8584   -0.5682   56.5144 H       1  ZINC001179023006    0.1200
     42 H42       -15.4235   -0.0012   54.1612 H       1  ZINC001179023006    0.1200
     43 H43       -13.3735   -0.8000   53.0546 H       1  ZINC001179023006    0.1300
     44 H44       -11.7729   -2.2035   54.3075 H       1  ZINC001179023006    0.1300
     45 H45       -11.1883   -3.3813   56.1920 H       1  ZINC001179023006    0.0900
     46 H46       -12.5098   -3.9061   57.2536 H       1  ZINC001179023006    0.0800
     47 H47       -10.3998   -2.4092   58.0431 H       1  ZINC001179023006    0.4000
     48 H48       -13.6449    4.3662   59.7719 H       1  ZINC001179023006    0.0900
     49 H49       -14.1095    2.6112   59.6984 H       1  ZINC001179023006    0.0800
     50 H50       -15.6212    2.8382   61.6152 H       1  ZINC001179023006    0.0800
     51 H51       -15.6967    4.5789   61.1024 H       1  ZINC001179023006    0.0700
     52 H52       -14.1428    3.6975   63.3708 H       1  ZINC001179023006    0.0700
     53 H53       -13.6683    5.1325   62.3622 H       1  ZINC001179023006    0.0900
@<TRIPOS>BOND
     1     1     2    1
     2     1    26    1
     3     1    27    1
     4     1    28    1
     5     2     3    1
     6     2    29    1
     7     2    30    1
     8     3    25    1
     9     3     4    1
    10     3    23    1
    11     4     5    2
    12     4     6   am
    13     6    11    1
    14     6     7    1
    15     7     8    1
    16     7    31    1
    17     7    32    1
    18     8     9    1
    19     8    33    1
    20     8    34    1
    21     9    21    1
    22     9    10    1
    23     9    12    1
    24    10    11    1
    25    10    35    1
    26    10    36    1
    27    11    37    1
    28    11    38    1
    29    12    13    1
    30    12    39    1
    31    12    40    1
    32    13    18   ar
    33    13    14   ar
    34    14    15   ar
    35    14    41    1
    36    15    16   ar
    37    15    42    1
    38    16    17   ar
    39    16    43    1
    40    17    18   ar
    41    17    44    1
    42    18    19    1
    43    19    20    1
    44    19    45    1
    45    19    46    1
    46    20    21   am
    47    20    47    1
    48    21    22    2
    49    23    24    1
    50    23    48    1
    51    23    49    1
    52    24    25    1
    53    24    50    1
    54    24    51    1
    55    25    52    1
    56    25    53    1
@<TRIPOS>SUBSTRUCTURE
     1 ZINC001179023006        1 TEMP              0 ****  ****    0 ROOT


##########                                Name:    ZINC000672622940
##########                DOCK_Rotatable_Bonds:                   7
##########                         Heavy_Atoms:                  30
##########                    Molecular_Weight:             416.523
##########                DOCK_Rotatable_Bonds:                   7
##########                       Formal_Charge:          -0.0100002
##########                     HBond_Acceptors:                   9
##########                        HBond_Donors:                   1
##########                         Heavy_Atoms:                  30
##########                          Grid_Score:          -20.914251
##########                     Grid_vdw_energy:          -19.513399
##########                      Grid_es_energy:           -1.400852
##########           Internal_energy_repulsive:           33.043499

@<TRIPOS>MOLECULE
ZINC000672622940
 62 65 1 0 0
SMALL
USER_CHARGES


@<TRIPOS>ATOM
      1 C1         -9.6170    3.8987   66.6361 C.3     1  ZINC000672622940    0.0800
      2 N2         -8.7684    3.9556   65.4433 N.am    1  ZINC000672622940   -0.6200
      3 C3         -7.3173    3.7975   65.5684 C.3     1  ZINC000672622940    0.0700
      4 C4         -9.3226    4.1535   64.2308 C.2     1  ZINC000672622940    0.5200
      5 O5         -8.6202    4.1991   63.2431 O.2     1  ZINC000672622940   -0.5300
      6 C6        -10.8151    4.3179   64.1024 C.3     1  ZINC000672622940   -0.1000
      7 H7        -11.3124    3.7460   64.8857 H       1  ZINC000672622940    0.1000
      8 C8        -11.1791    5.7974   64.2417 C.3     1  ZINC000672622940   -0.1300
      9 C9        -12.6943    5.9643   64.1113 C.3     1  ZINC000672622940   -0.1100
     10 C10       -13.1476    5.4545   62.7418 C.3     1  ZINC000672622940   -0.1300
     11 C11       -12.7836    3.9749   62.6025 C.3     1  ZINC000672622940    0.1400
     12 H12       -13.2809    3.4030   63.3859 H       1  ZINC000672622940    0.1000
     13 N13       -13.2176    3.4866   61.2911 N.am    1  ZINC000672622940   -0.6900
     14 C14       -14.4971    3.1071   61.1030 C.2     1  ZINC000672622940    0.5100
     15 O15       -15.2900    3.1712   62.0195 O.2     1  ZINC000672622940   -0.5100
     16 C16       -14.9394    2.6073   59.7659 C.2     1  ZINC000672622940    0.5100
     17 O17       -15.3879    3.3820   58.9465 O.2     1  ZINC000672622940   -0.5200
     18 N18       -14.8400    1.2962   59.4699 N.am    1  ZINC000672622940   -0.5800
     19 C19       -15.2650    0.7908   58.1574 C.3     1  ZINC000672622940    0.0700
     20 C20       -14.1099   -0.0009   57.5363 C.3     1  ZINC000672622940   -0.1200
     21 C21       -13.6594   -1.0894   58.5131 C.3     1  ZINC000672622940    0.0000
     22 C22       -12.5457   -1.8922   57.8916 C.2     1  ZINC000672622940    0.2000
     23 N23       -12.5475   -2.4251   56.7003 N.2     1  ZINC000672622940   -0.2800
     24 N24       -11.4352   -3.0376   56.4986 N.2     1  ZINC000672622940   -0.2800
     25 C25       -10.6727   -2.9218   57.5534 C.2     1  ZINC000672622940    0.1500
     26 C26        -9.3172   -3.3044   58.1072 C.3     1  ZINC000672622940   -0.0400
     27 C27        -9.1149   -2.3543   59.3096 C.3     1  ZINC000672622940   -0.1300
     28 C28       -10.5720   -2.0172   59.6948 C.3     1  ZINC000672622940    0.1000
     29 N29       -11.3530   -2.1902   58.4639 N.pl3   1  ZINC000672622940   -0.4900
     30 C30       -13.1604   -0.4415   59.8068 C.3     1  ZINC000672622940   -0.1200
     31 C31       -14.2990    0.3461   60.4514 C.3     1  ZINC000672622940    0.1100
     32 C32       -11.2684    3.8079   62.7329 C.3     1  ZINC000672622940   -0.1100
     33 H33        -9.7271    4.9003   67.0518 H       1  ZINC000672622940    0.0600
     34 H34       -10.5978    3.5076   66.3659 H       1  ZINC000672622940    0.0800
     35 H35        -9.1573    3.2458   67.3782 H       1  ZINC000672622940    0.0700
     36 H36        -7.0578    2.7426   65.4796 H       1  ZINC000672622940    0.0600
     37 H37        -6.8209    4.3616   64.7787 H       1  ZINC000672622940    0.0800
     38 H38        -6.9936    4.1707   66.5401 H       1  ZINC000672622940    0.0700
     39 H39       -10.8562    6.1607   65.2174 H       1  ZINC000672622940    0.0800
     40 H40       -10.6818    6.3693   63.4582 H       1  ZINC000672622940    0.0700
     41 H41       -13.1917    5.3925   64.8947 H       1  ZINC000672622940    0.0700
     42 H42       -12.9536    7.0184   64.2105 H       1  ZINC000672622940    0.0700
     43 H43       -14.2271    5.5734   62.6488 H       1  ZINC000672622940    0.0700
     44 H44       -12.6502    6.0263   61.9584 H       1  ZINC000672622940    0.0700
     45 H45       -12.5842    3.4365   60.5583 H       1  ZINC000672622940    0.4100
     46 H46       -16.1304    0.1394   58.2794 H       1  ZINC000672622940    0.0700
     47 H47       -15.5238    1.6283   57.5097 H       1  ZINC000672622940    0.1400
     48 H48       -14.4432   -0.4618   56.6065 H       1  ZINC000672622940    0.0800
     49 H49       -13.2768    0.6715   57.3314 H       1  ZINC000672622940    0.0800
     50 H50       -14.4995   -1.7467   58.7371 H       1  ZINC000672622940    0.0900
     51 H51        -9.3198   -4.3430   58.4382 H       1  ZINC000672622940    0.1000
     52 H52        -8.5407   -3.1436   57.3593 H       1  ZINC000672622940    0.1000
     53 H53        -8.6033   -2.8628   60.1267 H       1  ZINC000672622940    0.1100
     54 H54        -8.5731   -1.4569   59.0105 H       1  ZINC000672622940    0.0900
     55 H55       -10.9245   -2.6991   60.4687 H       1  ZINC000672622940    0.1000
     56 H56       -10.6415   -0.9857   60.0400 H       1  ZINC000672622940    0.1000
     57 H57       -12.8179   -1.2160   60.4931 H       1  ZINC000672622940    0.0800
     58 H58       -12.3362    0.2350   59.5804 H       1  ZINC000672622940    0.0800
     59 H59       -13.9227    0.8890   61.3185 H       1  ZINC000672622940    0.1000
     60 H60       -15.0880   -0.3393   60.7611 H       1  ZINC000672622940    0.0800
     61 H61       -10.7710    4.3798   61.9494 H       1  ZINC000672622940    0.0800
     62 H62       -11.0091    2.7539   62.6335 H       1  ZINC000672622940    0.0800
@<TRIPOS>BOND
     1     1     2    1
     2     1    33    1
     3     1    34    1
     4     1    35    1
     5     2     3    1
     6     2     4   am
     7     3    36    1
     8     3    37    1
     9     3    38    1
    10     4     5    2
    11     4     6    1
    12     6     7    1
    13     6    32    1
    14     6     8    1
    15     8     9    1
    16     8    39    1
    17     8    40    1
    18     9    10    1
    19     9    41    1
    20     9    42    1
    21    10    11    1
    22    10    43    1
    23    10    44    1
    24    11    12    1
    25    11    13    1
    26    11    32    1
    27    13    14   am
    28    13    45    1
    29    14    15    2
    30    14    16    1
    31    16    17    2
    32    16    18   am
    33    18    31    1
    34    18    19    1
    35    19    20    1
    36    19    46    1
    37    19    47    1
    38    20    21    1
    39    20    48    1
    40    20    49    1
    41    21    22    1
    42    21    30    1
    43    21    50    1
    44    22    29    1
    45    22    23    2
    46    23    24    1
    47    24    25    2
    48    25    29    1
    49    25    26    1
    50    26    27    1
    51    26    51    1
    52    26    52    1
    53    27    28    1
    54    27    53    1
    55    27    54    1
    56    28    29    1
    57    28    55    1
    58    28    56    1
    59    30    31    1
    60    30    57    1
    61    30    58    1
    62    31    59    1
    63    31    60    1
    64    32    61    1
    65    32    62    1
@<TRIPOS>SUBSTRUCTURE
     1 ZINC000672622940        1 TEMP              0 ****  ****    0 ROOT


##########                                Name:    ZINC000541315701
##########                DOCK_Rotatable_Bonds:                   4
##########                         Heavy_Atoms:                  25
##########                    Molecular_Weight:             422.709
##########                DOCK_Rotatable_Bonds:                   4
##########                       Formal_Charge:           0.0300003
##########                     HBond_Acceptors:                   6
##########                        HBond_Donors:                   0
##########                         Heavy_Atoms:                  25
##########                          Grid_Score:          -20.688532
##########                     Grid_vdw_energy:          -17.738899
##########                      Grid_es_energy:           -2.949633
##########           Internal_energy_repulsive:           20.317728

@<TRIPOS>MOLECULE
ZINC000541315701
 42 44 1 0 0
SMALL
USER_CHARGES


@<TRIPOS>ATOM
      1 C1        -13.7620    3.2981   61.6274 C.3     1  ZINC000541315701    0.0800
      2 N2        -13.2064    2.3314   62.5775 N.am    1  ZINC000541315701   -0.5700
      3 C3        -12.7719    1.1321   62.1423 C.2     1  ZINC000541315701    0.5400
      4 O4        -12.3120    0.3318   62.9289 O.2     1  ZINC000541315701   -0.5000
      5 C5        -12.8576    0.7857   60.6782 C.3     1  ZINC000541315701   -0.1100
      6 H6        -13.8487    1.0098   60.2838 H       1  ZINC000541315701    0.1300
      7 C7        -11.7617    1.5192   59.8709 C.3     1  ZINC000541315701   -0.1500
      8 C8        -10.6161    0.5326   59.8190 C.2     1  ZINC000541315701    0.5200
      9 O9         -9.4726    0.8107   59.5255 O.2     1  ZINC000541315701   -0.5200
     10 N10       -11.0497   -0.6970   60.1458 N.am    1  ZINC000541315701   -0.6100
     11 C11       -10.1962   -1.8863   60.2033 C.3     1  ZINC000541315701    0.0900
     12 C12       -12.4890   -0.6952   60.4380 C.3     1  ZINC000541315701    0.1900
     13 H13       -12.6932   -1.2849   61.3317 H       1  ZINC000541315701    0.1100
     14 C14       -13.2599   -1.2435   59.2650 C.ar    1  ZINC000541315701   -0.0900
     15 C15       -14.6007   -1.5504   59.4020 C.ar    1  ZINC000541315701   -0.1000
     16 C16       -15.3089   -2.0531   58.3262 C.ar    1  ZINC000541315701   -0.1000
     17 C17       -14.6764   -2.2494   57.1133 C.ar    1  ZINC000541315701   -0.1000
     18 C18       -13.3343   -1.9422   56.9754 C.ar    1  ZINC000541315701   -0.0300
     19 Cl19      -12.5392   -2.1879   55.4519 Cl      1  ZINC000541315701   -0.0600
     20 C20       -12.6276   -1.4340   58.0506 C.ar    1  ZINC000541315701   -0.0900
     21 C21       -13.1271    2.6520   63.9322 C.ar    1  ZINC000541315701    0.3800
     22 N22       -14.1975    2.5247   64.6999 N.ar    1  ZINC000541315701   -0.4700
     23 C23       -14.1657    2.8167   65.9862 C.ar    1  ZINC000541315701    0.1300
     24 C24       -13.0049    3.2691   66.5814 C.ar    1  ZINC000541315701   -0.1600
     25 C25       -11.8590    3.4167   65.8115 C.ar    1  ZINC000541315701   -0.0400
     26 C26       -11.9221    3.0974   64.4660 C.ar    1  ZINC000541315701   -0.1300
     27 Br27      -10.3946    3.2770   63.3657 Br      1  ZINC000541315701   -0.0200
     28 H28       -14.2929    2.7670   60.8373 H       1  ZINC000541315701    0.0900
     29 H29       -14.4531    3.9621   62.1467 H       1  ZINC000541315701    0.0800
     30 H30       -12.9534    3.8847   61.1911 H       1  ZINC000541315701    0.0700
     31 H31       -12.1159    1.7458   58.8652 H       1  ZINC000541315701    0.1200
     32 H32       -11.4566    2.4316   60.3835 H       1  ZINC000541315701    0.1100
     33 H33        -9.1740   -1.6129   59.9421 H       1  ZINC000541315701    0.0900
     34 H34       -10.2155   -2.2990   61.2121 H       1  ZINC000541315701    0.0700
     35 H35       -10.5644   -2.6321   59.4987 H       1  ZINC000541315701    0.0600
     36 H36       -15.0951   -1.3979   60.3500 H       1  ZINC000541315701    0.1300
     37 H37       -16.3564   -2.2928   58.4339 H       1  ZINC000541315701    0.1400
     38 H38       -15.2295   -2.6427   56.2731 H       1  ZINC000541315701    0.1400
     39 H39       -11.5801   -1.1941   57.9436 H       1  ZINC000541315701    0.1400
     40 H40       -15.0595    2.7007   66.5813 H       1  ZINC000541315701    0.1700
     41 H41       -12.9885    3.5058   67.6350 H       1  ZINC000541315701    0.1500
     42 H42       -10.9385    3.7687   66.2531 H       1  ZINC000541315701    0.1500
@<TRIPOS>BOND
     1     1     2    1
     2     1    28    1
     3     1    29    1
     4     1    30    1
     5     2     3   am
     6     2    21    1
     7     3     4    2
     8     3     5    1
     9     5     6    1
    10     5    12    1
    11     5     7    1
    12     7     8    1
    13     7    31    1
    14     7    32    1
    15     8     9    2
    16     8    10   am
    17    10    11    1
    18    10    12    1
    19    11    33    1
    20    11    34    1
    21    11    35    1
    22    12    13    1
    23    12    14    1
    24    14    20   ar
    25    14    15   ar
    26    15    16   ar
    27    15    36    1
    28    16    17   ar
    29    16    37    1
    30    17    18   ar
    31    17    38    1
    32    18    19    1
    33    18    20   ar
    34    20    39    1
    35    21    26   ar
    36    21    22   ar
    37    22    23   ar
    38    23    24   ar
    39    23    40    1
    40    24    25   ar
    41    24    41    1
    42    25    26   ar
    43    25    42    1
    44    26    27    1
@<TRIPOS>SUBSTRUCTURE
     1 ZINC000541315701        1 TEMP              0 ****  ****    0 ROOT


##########                                Name:    ZINC000956479608
##########                DOCK_Rotatable_Bonds:                   5
##########                         Heavy_Atoms:                  25
##########                    Molecular_Weight:             345.442
##########                DOCK_Rotatable_Bonds:                   5
##########                       Formal_Charge:          -0.0100001
##########                     HBond_Acceptors:                   6
##########                        HBond_Donors:                   1
##########                         Heavy_Atoms:                  25
##########                          Grid_Score:          -20.455872
##########                     Grid_vdw_energy:          -18.854660
##########                      Grid_es_energy:           -1.601211
##########           Internal_energy_repulsive:           36.022926

@<TRIPOS>MOLECULE
ZINC000956479608
 52 55 1 0 0
SMALL
USER_CHARGES


@<TRIPOS>ATOM
      1 C1          2.3501    5.2636   49.8536 C.3     1  ZINC000956479608   -0.0900
      2 C2          3.1546    4.5138   48.8232 C.2     1  ZINC000956479608   -0.1100
      3 C3          3.3753    3.1659   48.7423 C.2     1  ZINC000956479608   -0.1000
      4 C4          2.8675    2.1278   49.6589 C.2     1  ZINC000956479608    0.6100
      5 O5          3.1437    0.9594   49.4670 O.2     1  ZINC000956479608   -0.5000
      6 N6          2.0972    2.4744   50.7091 N.am    1  ZINC000956479608   -0.7100
      7 C7          1.5913    1.4432   51.6185 C.3     1  ZINC000956479608    0.1800
      8 C8          0.7336    0.4481   50.8341 C.3     1  ZINC000956479608   -0.1700
      9 C9          2.7695    0.7060   52.2593 C.3     1  ZINC000956479608   -0.1500
     10 C10         3.6450    1.7104   53.0150 C.3     1  ZINC000956479608    0.1100
     11 N11         2.8041    2.4476   53.9680 N.am    1  ZINC000956479608   -0.6100
     12 C12         3.1358    2.5077   55.2729 C.2     1  ZINC000956479608    0.5500
     13 O13         4.1376    1.9513   55.6702 O.2     1  ZINC000956479608   -0.5400
     14 C14         2.2620    3.2663   56.2384 C.3     1  ZINC000956479608   -0.1900
     15 H15         2.2092    4.3432   56.0788 H       1  ZINC000956479608    0.1200
     16 C16         1.0097    2.5683   56.7524 C.3     1  ZINC000956479608   -0.1100
     17 H17         0.8464    1.5539   56.3886 H       1  ZINC000956479608    0.1000
     18 C18        -0.2612    3.3701   56.9868 C.3     1  ZINC000956479608   -0.0900
     19 C19         0.0387    4.6192   57.8155 C.3     1  ZINC000956479608   -0.1200
     20 C20         0.7386    4.1903   59.1102 C.3     1  ZINC000956479608   -0.1200
     21 C21         2.1801    3.8030   58.7795 C.3     1  ZINC000956479608   -0.0900
     22 C22         2.1969    2.7587   57.6872 C.3     1  ZINC000956479608   -0.1100
     23 H23         2.7686    1.8580   57.9105 H       1  ZINC000956479608    0.1100
     24 C24         1.5950    3.1183   53.4713 C.3     1  ZINC000956479608    0.1000
     25 C25         0.7424    2.0981   52.7104 C.3     1  ZINC000956479608   -0.1400
     26 O26         4.1493    2.9787   47.6566 O.3     1  ZINC000956479608    0.1200
     27 N27         4.4015    4.0254   47.1071 N.2     1  ZINC000956479608   -0.3400
     28 C28         3.8517    5.0380   47.7120 C.2     1  ZINC000956479608   -0.0100
     29 H29         1.3141    5.3371   49.5227 H       1  ZINC000956479608    0.0800
     30 H30         2.3910    4.7316   50.8041 H       1  ZINC000956479608    0.0900
     31 H31         2.7632    6.2644   49.9793 H       1  ZINC000956479608    0.0800
     32 H32         1.8777    3.4066   50.8629 H       1  ZINC000956479608    0.4100
     33 H33         1.3380   -0.0182   50.0560 H       1  ZINC000956479608    0.0800
     34 H34         0.3572   -0.3193   51.5105 H       1  ZINC000956479608    0.0700
     35 H35        -0.1053    0.9728   50.3770 H       1  ZINC000956479608    0.0600
     36 H36         2.3941   -0.0449   52.9546 H       1  ZINC000956479608    0.0800
     37 H37         3.3605    0.2202   51.4828 H       1  ZINC000956479608    0.1000
     38 H38         4.4287    1.1787   53.5545 H       1  ZINC000956479608    0.0900
     39 H39         4.0941    2.4082   52.3082 H       1  ZINC000956479608    0.0600
     40 H40        -0.6807    3.6682   56.0260 H       1  ZINC000956479608    0.0700
     41 H41        -0.9841    2.7510   57.5179 H       1  ZINC000956479608    0.0700
     42 H42         0.6905    5.2855   57.2506 H       1  ZINC000956479608    0.0600
     43 H43        -0.8930    5.1314   58.0556 H       1  ZINC000956479608    0.0700
     44 H44         0.7355    5.0181   59.8194 H       1  ZINC000956479608    0.0700
     45 H45         0.2192    3.3342   59.5408 H       1  ZINC000956479608    0.0700
     46 H46         2.7223    4.6854   58.4398 H       1  ZINC000956479608    0.0700
     47 H47         2.6620    3.4073   59.6735 H       1  ZINC000956479608    0.0700
     48 H48         1.0260    3.5155   54.3119 H       1  ZINC000956479608    0.0900
     49 H49         1.8768    3.9309   52.8016 H       1  ZINC000956479608    0.0700
     50 H50        -0.1094    2.6032   52.2551 H       1  ZINC000956479608    0.0900
     51 H51         0.3861    1.3342   53.4016 H       1  ZINC000956479608    0.0900
     52 H52         3.9215    6.0768   47.4252 H       1  ZINC000956479608    0.2000
@<TRIPOS>BOND
     1     1     2    1
     2     1    29    1
     3     1    30    1
     4     1    31    1
     5     2    28    1
     6     2     3    2
     7     3     4    1
     8     3    26    1
     9     4     5    2
    10     4     6   am
    11     6     7    1
    12     6    32    1
    13     7    25    1
    14     7     8    1
    15     7     9    1
    16     8    33    1
    17     8    34    1
    18     8    35    1
    19     9    10    1
    20     9    36    1
    21     9    37    1
    22    10    11    1
    23    10    38    1
    24    10    39    1
    25    11    12   am
    26    11    24    1
    27    12    13    2
    28    12    14    1
    29    14    15    1
    30    14    22    1
    31    14    16    1
    32    16    17    1
    33    16    22    1
    34    16    18    1
    35    18    19    1
    36    18    40    1
    37    18    41    1
    38    19    20    1
    39    19    42    1
    40    19    43    1
    41    20    21    1
    42    20    44    1
    43    20    45    1
    44    21    22    1
    45    21    46    1
    46    21    47    1
    47    22    23    1
    48    24    25    1
    49    24    48    1
    50    24    49    1
    51    25    50    1
    52    25    51    1
    53    26    27    1
    54    27    28    2
    55    28    52    1
@<TRIPOS>SUBSTRUCTURE
     1 ZINC000956479608        1 TEMP              0 ****  ****    0 ROOT


##########                                Name:    ZINC000962730513
##########                DOCK_Rotatable_Bonds:                   6
##########                         Heavy_Atoms:                  24
##########                    Molecular_Weight:             342.465
##########                DOCK_Rotatable_Bonds:                   6
##########                       Formal_Charge:         -0.00999998
##########                     HBond_Acceptors:                   6
##########                        HBond_Donors:                   1
##########                         Heavy_Atoms:                  24
##########                          Grid_Score:          -20.455681
##########                     Grid_vdw_energy:          -20.588974
##########                      Grid_es_energy:            0.133292
##########           Internal_energy_repulsive:           17.052933

@<TRIPOS>MOLECULE
ZINC000962730513
 46 49 1 0 0
SMALL
USER_CHARGES


@<TRIPOS>ATOM
      1 C1        -13.3690    4.2402   54.7872 C.3     1  ZINC000962730513   -0.1400
      2 C2        -14.5294    3.2534   54.9312 C.3     1  ZINC000962730513   -0.0800
      3 C3        -14.0753    1.8792   54.5110 C.2     1  ZINC000962730513   -0.0100
      4 C4        -13.5326    0.9704   55.3754 C.2     1  ZINC000962730513   -0.2800
      5 C5        -13.3139    1.1856   56.8088 C.2     1  ZINC000962730513    0.6000
      6 O6        -13.6243    2.2458   57.3193 O.2     1  ZINC000962730513   -0.5200
      7 N7        -12.7693    0.2092   57.5613 N.am    1  ZINC000962730513   -0.7000
      8 C8        -12.5491    0.4248   58.9936 C.3     1  ZINC000962730513    0.1200
      9 H9        -13.4363    0.3467   59.6219 H       1  ZINC000962730513    0.1400
     10 C10       -11.4871    1.4495   59.3973 C.3     1  ZINC000962730513   -0.1700
     11 H11       -10.9802    2.0300   58.6265 H       1  ZINC000962730513    0.1200
     12 C12       -11.5616    2.0546   60.8155 C.3     1  ZINC000962730513    0.0700
     13 N13       -10.8028    1.1040   61.6685 N.3     1  ZINC000962730513   -0.5000
     14 C14       -11.1802    1.2474   63.0810 C.3     1  ZINC000962730513    0.1100
     15 C15        -9.9550    1.0994   63.9459 C.ar    1  ZINC000962730513    0.3200
     16 N16        -9.7924    1.9106   64.9718 N.ar    1  ZINC000962730513   -0.5100
     17 C17        -8.7291    1.8105   65.7533 C.ar    1  ZINC000962730513    0.1500
     18 C18        -7.7811    0.8370   65.4804 C.ar    1  ZINC000962730513   -0.1900
     19 C19        -6.5561    0.6888   66.3455 C.3     1  ZINC000962730513   -0.1100
     20 C20        -7.9870    0.0028   64.3928 C.ar    1  ZINC000962730513    0.1500
     21 N21        -9.0773    0.1590   63.6593 N.ar    1  ZINC000962730513   -0.5000
     22 C22       -11.1824   -0.2352   61.1494 C.3     1  ZINC000962730513    0.0700
     23 C23       -11.2224   -0.0575   59.5835 C.3     1  ZINC000962730513   -0.1700
     24 H24       -10.4977   -0.6179   58.9928 H       1  ZINC000962730513    0.1300
     25 S25       -13.1391   -0.4985   54.4927 S.3     1  ZINC000962730513    0.1900
     26 C26       -13.7133    0.1699   53.0317 C.2     1  ZINC000962730513   -0.2200
     27 C27       -14.1710    1.4131   53.2214 C.2     1  ZINC000962730513   -0.1500
     28 H28       -12.5407    3.9219   55.4203 H       1  ZINC000962730513    0.0600
     29 H29       -13.0422    4.2675   53.7478 H       1  ZINC000962730513    0.0500
     30 H30       -13.6974    5.2341   55.0911 H       1  ZINC000962730513    0.0600
     31 H31       -14.8562    3.2261   55.9707 H       1  ZINC000962730513    0.1000
     32 H32       -15.3577    3.5717   54.2982 H       1  ZINC000962730513    0.0700
     33 H33       -12.5229   -0.6363   57.1546 H       1  ZINC000962730513    0.4000
     34 H34       -11.0935    3.0388   60.8341 H       1  ZINC000962730513    0.0900
     35 H35       -12.5978    2.1192   61.1473 H       1  ZINC000962730513    0.0500
     36 H36       -11.6214    2.2312   63.2411 H       1  ZINC000962730513    0.1000
     37 H37       -11.9053    0.4770   63.3433 H       1  ZINC000962730513    0.0700
     38 H38        -8.6017    2.4785   66.5922 H       1  ZINC000962730513    0.1700
     39 H39        -6.7664   -0.0083   67.1566 H       1  ZINC000962730513    0.0800
     40 H40        -5.7305    0.3081   65.7441 H       1  ZINC000962730513    0.0700
     41 H41        -6.2854    1.6592   66.7614 H       1  ZINC000962730513    0.0700
     42 H42        -7.2694   -0.7667   64.1497 H       1  ZINC000962730513    0.1700
     43 H43       -10.4288   -0.9750   61.4191 H       1  ZINC000962730513    0.0800
     44 H44       -12.1592   -0.5288   61.5334 H       1  ZINC000962730513    0.0600
     45 H45       -13.7115   -0.3432   52.0814 H       1  ZINC000962730513    0.1700
     46 H46       -14.5783    2.0094   52.4184 H       1  ZINC000962730513    0.1500
@<TRIPOS>BOND
     1     1     2    1
     2     1    28    1
     3     1    29    1
     4     1    30    1
     5     2     3    1
     6     2    31    1
     7     2    32    1
     8     3    27    1
     9     3     4    2
    10     4     5    1
    11     4    25    1
    12     5     6    2
    13     5     7   am
    14     7     8    1
    15     7    33    1
    16     8     9    1
    17     8    23    1
    18     8    10    1
    19    10    11    1
    20    10    23    1
    21    10    12    1
    22    12    13    1
    23    12    34    1
    24    12    35    1
    25    13    14    1
    26    13    22    1
    27    14    15    1
    28    14    36    1
    29    14    37    1
    30    15    21   ar
    31    15    16   ar
    32    16    17   ar
    33    17    18   ar
    34    17    38    1
    35    18    19    1
    36    18    20   ar
    37    19    39    1
    38    19    40    1
    39    19    41    1
    40    20    21   ar
    41    20    42    1
    42    22    23    1
    43    22    43    1
    44    22    44    1
    45    23    24    1
    46    25    26    1
    47    26    27    2
    48    26    45    1
    49    27    46    1
@<TRIPOS>SUBSTRUCTURE
     1 ZINC000962730513        1 TEMP              0 ****  ****    0 ROOT


##########                                Name:     oleObject15.pdb
##########                DOCK_Rotatable_Bonds:                   9
##########                         Heavy_Atoms:                  29
##########                    Molecular_Weight:             395.545
##########                DOCK_Rotatable_Bonds:                   9
##########                       Formal_Charge:         0.000700183
##########                     HBond_Acceptors:                   5
##########                        HBond_Donors:                   1
##########                         Heavy_Atoms:                  29
##########                          Grid_Score:          -20.411356
##########                     Grid_vdw_energy:          -20.239325
##########                      Grid_es_energy:           -0.172031
##########           Internal_energy_repulsive:           35.951836

@<TRIPOS>MOLECULE
oleObject15.pdb
 62 64 1 0 0
SMALL
NO_CHARGES


@<TRIPOS>ATOM
      1 O         -14.6695   -0.0782   57.3424 O.3     1  UNL        -0.3745
      2 C         -15.3350   -0.5432   58.5384 C.3     1  UNL         0.0600
      3 C         -14.2811   -1.1833   59.4715 C.3     1  UNL         0.0217
      4 N         -12.9929   -0.4542   59.5378 N.4     1  UNL        -0.3010
      5 C         -13.0886    0.9230   60.0738 C.3     1  UNL        -0.0010
      6 C         -11.7377    1.6666   59.9909 C.3     1  UNL        -0.0289
      7 C         -10.5805    0.8874   60.6609 C.3     1  UNL         0.0382
      8 C         -10.5576   -0.5747   60.1481 C.3     1  UNL        -0.0289
      9 C         -11.9422   -1.2625   60.1919 C.3     1  UNL        -0.0010
     10 C         -10.6539    0.9692   62.2059 C.2     1  UNL         0.2156
     11 O         -10.1778    0.1055   62.9201 O.2     1  UNL        -0.2774
     12 N         -11.2360    2.0752   62.8121 N.am    1  UNL        -0.3025
     13 C         -11.3968    2.3304   64.2560 C.3     1  UNL         0.0900
     14 C         -10.1683    2.9851   64.8850 C.ar    1  UNL        -0.0217
     15 C         -10.0383    4.3875   64.9417 C.ar    1  UNL        -0.0568
     16 C          -8.8964    4.9731   65.5123 C.ar    1  UNL        -0.0619
     17 C          -7.8766    4.1618   66.0339 C.ar    1  UNL        -0.0622
     18 C          -8.0012    2.7645   65.9867 C.ar    1  UNL        -0.0619
     19 C          -9.1434    2.1793   65.4163 C.ar    1  UNL        -0.0568
     20 C         -12.6525    3.1464   64.5481 C.ar    1  UNL         0.0652
     21 C         -13.3674    3.0005   65.7550 C.ar    1  UNL        -0.0383
     22 C         -14.5210    3.7738   65.9618 C.ar    1  UNL        -0.0588
     23 C         -14.9208    4.6651   64.9541 C.ar    1  UNL        -0.0438
     24 C         -14.1512    4.7467   63.7810 C.ar    1  UNL         0.0272
     25 N         -13.0432    4.0048   63.5806 N.ar    1  UNL        -0.2590
     26 C         -14.1034   -1.0389   56.4196 C.3     1  UNL         0.0599
     27 C         -15.1861   -2.0702   56.0136 C.3     1  UNL        -0.0364
     28 C         -13.6773   -0.2081   55.1881 C.3     1  UNL        -0.0364
     29 C         -12.8671   -1.7222   57.0559 C.3     1  UNL        -0.0364
     30 H         -16.0884   -1.2993   58.2866 H       1  UNL         0.0581
     31 H         -15.8381    0.2774   59.0613 H       1  UNL         0.0581
     32 H         -14.0981   -2.2047   59.1142 H       1  UNL         0.0455
     33 H         -14.7086   -1.2622   60.4791 H       1  UNL         0.0455
     34 H         -13.4245    0.8924   61.1183 H       1  UNL         0.0431
     35 H         -13.8219    1.5058   59.5043 H       1  UNL         0.0431
     36 H         -11.8374    2.6618   60.4393 H       1  UNL         0.0288
     37 H         -11.4927    1.8238   58.9324 H       1  UNL         0.0288
     38 H          -9.6442    1.3393   60.3232 H       1  UNL         0.0402
     39 H          -9.8301   -1.1633   60.7212 H       1  UNL         0.0288
     40 H         -10.2091   -0.5745   59.1071 H       1  UNL         0.0288
     41 H         -12.2213   -1.4538   61.2355 H       1  UNL         0.0431
     42 H         -11.8603   -2.2366   59.6928 H       1  UNL         0.0431
     43 H         -11.4953    2.8282   62.1878 H       1  UNL         0.1504
     44 H         -11.5440    1.3536   64.7343 H       1  UNL         0.0624
     45 H         -10.8165    5.0266   64.5349 H       1  UNL         0.0626
     46 H          -8.8015    6.0546   65.5479 H       1  UNL         0.0623
     47 H          -6.9931    4.6146   66.4748 H       1  UNL         0.0623
     48 H          -7.2141    2.1353   66.3923 H       1  UNL         0.0623
     49 H          -9.2307    1.0967   65.3857 H       1  UNL         0.0626
     50 H         -13.0364    2.3021   66.5175 H       1  UNL         0.0643
     51 H         -15.0919    3.6834   66.8814 H       1  UNL         0.0624
     52 H         -15.8076    5.2798   65.0776 H       1  UNL         0.0639
     53 H         -14.4304    5.4262   62.9766 H       1  UNL         0.0840
     54 H         -16.1044   -1.5642   55.6891 H       1  UNL         0.0260
     55 H         -15.4386   -2.7395   56.8449 H       1  UNL         0.0260
     56 H         -14.8335   -2.6960   55.1841 H       1  UNL         0.0260
     57 H         -14.5401    0.3081   54.7477 H       1  UNL         0.0260
     58 H         -13.2339   -0.8481   54.4148 H       1  UNL         0.0260
     59 H         -12.9351    0.5510   55.4667 H       1  UNL         0.0260
     60 H         -13.1537   -2.3811   57.8848 H       1  UNL         0.0260
     61 H         -12.1617   -0.9739   57.4397 H       1  UNL         0.0260
     62 H         -12.3392   -2.3356   56.3150 H       1  UNL         0.0260
@<TRIPOS>BOND
     1     1     2    1
     2     1    26    1
     3     2     3    1
     4     2    30    1
     5     2    31    1
     6     3     4    1
     7     3    32    1
     8     3    33    1
     9     4     5    1
    10     4     9    1
    11     5     6    1
    12     5    34    1
    13     5    35    1
    14     6     7    1
    15     6    36    1
    16     6    37    1
    17     7     8    1
    18     7    10    1
    19     7    38    1
    20     8     9    1
    21     8    39    1
    22     8    40    1
    23     9    41    1
    24     9    42    1
    25    10    11    2
    26    10    12   am
    27    12    13    1
    28    12    43    1
    29    13    14    1
    30    13    20    1
    31    13    44    1
    32    14    15   ar
    33    14    19   ar
    34    15    16   ar
    35    15    45    1
    36    16    17   ar
    37    16    46    1
    38    17    18   ar
    39    17    47    1
    40    18    19   ar
    41    18    48    1
    42    19    49    1
    43    20    21   ar
    44    20    25   ar
    45    21    22   ar
    46    21    50    1
    47    22    23   ar
    48    22    51    1
    49    23    24   ar
    50    23    52    1
    51    24    25   ar
    52    24    53    1
    53    26    27    1
    54    26    28    1
    55    26    29    1
    56    27    54    1
    57    27    55    1
    58    27    56    1
    59    28    57    1
    60    28    58    1
    61    28    59    1
    62    29    60    1
    63    29    61    1
    64    29    62    1
@<TRIPOS>SUBSTRUCTURE
     1 UNL         1 TEMP              0 ****  ****    0 ROOT


##########                                Name:    ZINC000129637895
##########                DOCK_Rotatable_Bonds:                   7
##########                         Heavy_Atoms:                  26
##########                    Molecular_Weight:             374.464
##########                DOCK_Rotatable_Bonds:                   7
##########                       Formal_Charge:        -5.51343e-07
##########                     HBond_Acceptors:                   8
##########                        HBond_Donors:                   1
##########                         Heavy_Atoms:                  26
##########                          Grid_Score:          -20.401051
##########                     Grid_vdw_energy:          -20.183113
##########                      Grid_es_energy:           -0.217937
##########           Internal_energy_repulsive:          178.336655

@<TRIPOS>MOLECULE
ZINC000129637895
 48 50 1 0 0
SMALL
USER_CHARGES


@<TRIPOS>ATOM
      1 C1          1.7499    2.8883   53.7991 C.3     1  ZINC000129637895   -0.1500
      2 C2          1.2413    4.2774   53.4085 C.3     1  ZINC000129637895   -0.0500
      3 C3          0.3017    4.7854   54.4716 C.2     1  ZINC000129637895    0.0300
      4 C4         -1.0233    4.5548   54.4452 C.2     1  ZINC000129637895   -0.0200
      5 N5         -1.7124    3.8368   53.4688 N.am    1  ZINC000129637895   -0.5900
      6 C6         -3.0475    3.6787   53.5651 C.2     1  ZINC000129637895    0.5000
      7 O7         -3.6501    4.1627   54.5015 O.2     1  ZINC000129637895   -0.4800
      8 C8         -3.7849    2.9085   52.5207 C.2     1  ZINC000129637895    0.5200
      9 O9         -3.1825    2.4246   51.5848 O.2     1  ZINC000129637895   -0.5100
     10 N10        -5.1200    2.7503   52.6170 N.am    1  ZINC000129637895   -0.5800
     11 C11        -5.8702    3.3336   53.7396 C.3     1  ZINC000129637895    0.0800
     12 C12        -7.0473    4.1353   53.1743 C.3     1  ZINC000129637895    0.0400
     13 N13        -7.8354    3.2771   52.2795 N.3     1  ZINC000129637895   -0.4900
     14 C14        -9.0067    3.9201   51.8727 C.ar    1  ZINC000129637895    0.1500
     15 C15       -10.0948    3.9936   52.7334 C.ar    1  ZINC000129637895   -0.2100
     16 C16       -11.2531    4.6301   52.3308 C.ar    1  ZINC000129637895   -0.0500
     17 C17       -11.3327    5.1945   51.0721 C.ar    1  ZINC000129637895   -0.2300
     18 C18       -10.2487    5.1241   50.2079 C.ar    1  ZINC000129637895    0.1500
     19 O19       -10.3286    5.6801   48.9704 O.3     1  ZINC000129637895   -0.3200
     20 C20       -11.5955    6.2127   48.5791 C.3     1  ZINC000129637895    0.0300
     21 C21        -9.0832    4.4915   50.6097 C.ar    1  ZINC000129637895   -0.1700
     22 C22        -7.0426    2.8446   51.1210 C.3     1  ZINC000129637895    0.0400
     23 C23        -5.8661    1.9952   51.5990 C.3     1  ZINC000129637895    0.1100
     24 S24        -1.7330    5.3206   55.8646 S.3     1  ZINC000129637895    0.2400
     25 C25        -0.1897    5.8719   56.3511 C.2     1  ZINC000129637895   -0.0300
     26 N26         0.7090    5.4887   55.5090 N.2     1  ZINC000129637895   -0.4500
     27 H27         2.2771    2.9488   54.7512 H       1  ZINC000129637895    0.0600
     28 H28         0.9056    2.2055   53.8940 H       1  ZINC000129637895    0.0500
     29 H29         2.4296    2.5208   53.0301 H       1  ZINC000129637895    0.0700
     30 H30         2.0857    4.9601   53.3135 H       1  ZINC000129637895    0.0900
     31 H31         0.7141    4.2169   52.4564 H       1  ZINC000129637895    0.0700
     32 H32        -1.2312    3.4512   52.7201 H       1  ZINC000129637895    0.4300
     33 H33        -6.2448    2.5372   54.3826 H       1  ZINC000129637895    0.0900
     34 H34        -5.2185    3.9940   54.3118 H       1  ZINC000129637895    0.1400
     35 H35        -7.6773    4.4829   53.9930 H       1  ZINC000129637895    0.1000
     36 H36        -6.6694    4.9922   52.6166 H       1  ZINC000129637895    0.0500
     37 H37       -10.0353    3.5527   53.7174 H       1  ZINC000129637895    0.1300
     38 H38       -12.0979    4.6864   53.0011 H       1  ZINC000129637895    0.1300
     39 H39       -12.2398    5.6907   50.7601 H       1  ZINC000129637895    0.1300
     40 H40       -12.3430    5.4197   48.5926 H       1  ZINC000129637895    0.0600
     41 H41       -11.8887    7.0002   49.2734 H       1  ZINC000129637895    0.0600
     42 H42       -11.5212    6.6249   47.5727 H       1  ZINC000129637895    0.1000
     43 H43        -8.2387    4.4362   49.9388 H       1  ZINC000129637895    0.1300
     44 H44        -7.6691    2.2563   50.4507 H       1  ZINC000129637895    0.1000
     45 H45        -6.6646    3.7195   50.5919 H       1  ZINC000129637895    0.0500
     46 H46        -5.2123    1.7682   50.7569 H       1  ZINC000129637895    0.1100
     47 H47        -6.2374    1.0691   52.0378 H       1  ZINC000129637895    0.0900
     48 H48         0.0056    6.4544   57.2393 H       1  ZINC000129637895    0.2000
@<TRIPOS>BOND
     1     1     2    1
     2     1    27    1
     3     1    28    1
     4     1    29    1
     5     2     3    1
     6     2    30    1
     7     2    31    1
     8     3    26    1
     9     3     4    2
    10     4     5    1
    11     4    24    1
    12     5     6   am
    13     5    32    1
    14     6     7    2
    15     6     8    1
    16     8     9    2
    17     8    10   am
    18    10    23    1
    19    10    11    1
    20    11    12    1
    21    11    33    1
    22    11    34    1
    23    12    13    1
    24    12    35    1
    25    12    36    1
    26    13    14    1
    27    13    22    1
    28    14    21   ar
    29    14    15   ar
    30    15    16   ar
    31    15    37    1
    32    16    17   ar
    33    16    38    1
    34    17    18   ar
    35    17    39    1
    36    18    19    1
    37    18    21   ar
    38    19    20    1
    39    20    40    1
    40    20    41    1
    41    20    42    1
    42    21    43    1
    43    22    23    1
    44    22    44    1
    45    22    45    1
    46    23    46    1
    47    23    47    1
    48    24    25    1
    49    25    26    2
    50    25    48    1
@<TRIPOS>SUBSTRUCTURE
     1 ZINC000129637895        1 TEMP              0 ****  ****    0 ROOT


##########                                Name:    ZINC000534890536
##########                DOCK_Rotatable_Bonds:                   6
##########                         Heavy_Atoms:                  30
##########                    Molecular_Weight:             411.476
##########                DOCK_Rotatable_Bonds:                   6
##########                       Formal_Charge:          0.00999957
##########                     HBond_Acceptors:                   7
##########                        HBond_Donors:                   1
##########                         Heavy_Atoms:                  30
##########                          Grid_Score:          -20.382298
##########                     Grid_vdw_energy:          -18.607635
##########                      Grid_es_energy:           -1.774662
##########           Internal_energy_repulsive:           31.717552

@<TRIPOS>MOLECULE
ZINC000534890536
 56 59 1 0 0
SMALL
USER_CHARGES


@<TRIPOS>ATOM
      1 C1        -11.5907    4.0179   48.7308 C.3     1  ZINC000534890536    0.0300
      2 O2        -12.8619    4.6216   48.9791 O.3     1  ZINC000534890536   -0.3200
      3 C3        -13.4302    4.3871   50.1911 C.ar    1  ZINC000534890536    0.1300
      4 C4        -14.6661    4.9379   50.4973 C.ar    1  ZINC000534890536   -0.2100
      5 C5        -15.2418    4.6976   51.7299 C.ar    1  ZINC000534890536   -0.0700
      6 C6        -14.5871    3.9093   52.6582 C.ar    1  ZINC000534890536   -0.1100
      7 C7        -15.2172    3.6492   54.0022 C.3     1  ZINC000534890536   -0.0600
      8 H8        -16.3025    3.5937   53.9184 H       1  ZINC000534890536    0.0900
      9 C9        -14.7933    4.7284   55.0333 C.3     1  ZINC000534890536   -0.1200
     10 C10       -14.9164    3.9861   56.3807 C.3     1  ZINC000534890536    0.1000
     11 N11       -14.8350    2.5463   56.0950 N.am    1  ZINC000534890536   -0.6400
     12 C12       -14.9228    1.5582   57.0075 C.2     1  ZINC000534890536    0.7300
     13 O13       -15.0843    1.8279   58.1820 O.2     1  ZINC000534890536   -0.5700
     14 N14       -14.8315    0.2712   56.6180 N.am    1  ZINC000534890536   -0.7300
     15 C15       -14.9252   -0.8027   57.6100 C.3     1  ZINC000534890536    0.1600
     16 H16       -15.4221   -0.4271   58.5045 H       1  ZINC000534890536    0.1200
     17 C17       -15.7354   -1.9635   57.0278 C.3     1  ZINC000534890536   -0.1300
     18 C18       -15.5899   -3.1720   57.9604 C.3     1  ZINC000534890536   -0.1300
     19 C19       -14.1432   -3.6640   57.9022 C.3     1  ZINC000534890536    0.1100
     20 N20       -13.2191   -2.5573   58.1152 N.am    1  ZINC000534890536   -0.5600
     21 C21       -11.9067   -2.8623   58.4974 C.ar    1  ZINC000534890536    0.1000
     22 C22       -10.9990   -3.3286   57.5571 C.ar    1  ZINC000534890536   -0.0800
     23 C23        -9.7046   -3.6283   57.9369 C.ar    1  ZINC000534890536   -0.1200
     24 C24        -9.3124   -3.4650   59.2524 C.ar    1  ZINC000534890536   -0.0800
     25 C25       -10.2134   -3.0006   60.1935 C.ar    1  ZINC000534890536   -0.1500
     26 C26       -11.5085   -2.6933   59.8194 C.ar    1  ZINC000534890536    0.1100
     27 F27       -12.3886   -2.2393   60.7383 F       1  ZINC000534890536   -0.1300
     28 C28       -13.5447   -1.2739   57.9670 C.2     1  ZINC000534890536    0.5000
     29 O29       -12.6798   -0.4395   58.1315 O.2     1  ZINC000534890536   -0.5100
     30 C30       -14.6433    2.3616   54.6446 C.3     1  ZINC000534890536    0.1300
     31 C31       -13.3553    3.3588   52.3552 C.ar    1  ZINC000534890536   -0.0700
     32 C32       -12.7778    3.5918   51.1221 C.ar    1  ZINC000534890536   -0.1500
     33 H33       -10.8694    4.3742   49.4663 H       1  ZINC000534890536    0.0600
     34 H34       -11.6820    2.9344   48.8068 H       1  ZINC000534890536    0.0600
     35 H35       -11.2511    4.2847   47.7300 H       1  ZINC000534890536    0.1000
     36 H36       -15.1776    5.5542   49.7729 H       1  ZINC000534890536    0.1300
     37 H37       -16.2040    5.1260   51.9688 H       1  ZINC000534890536    0.1300
     38 H38       -13.7648    5.0446   54.8598 H       1  ZINC000534890536    0.0800
     39 H39       -15.4712    5.5813   54.9995 H       1  ZINC000534890536    0.0900
     40 H40       -14.1007    4.2797   57.0414 H       1  ZINC000534890536    0.0700
     41 H41       -15.8746    4.2182   56.8457 H       1  ZINC000534890536    0.0700
     42 H42       -14.7039    0.0559   55.6808 H       1  ZINC000534890536    0.4000
     43 H43       -16.7852   -1.6791   56.9567 H       1  ZINC000534890536    0.0900
     44 H44       -15.3554   -2.2162   56.0378 H       1  ZINC000534890536    0.0800
     45 H45       -15.8355   -2.8781   58.9809 H       1  ZINC000534890536    0.0800
     46 H46       -16.2602   -3.9677   57.6352 H       1  ZINC000534890536    0.1000
     47 H47       -13.9874   -4.4172   58.6747 H       1  ZINC000534890536    0.0800
     48 H48       -13.9531   -4.1094   56.9257 H       1  ZINC000534890536    0.0700
     49 H49       -11.3040   -3.4573   56.5291 H       1  ZINC000534890536    0.1300
     50 H50        -8.9983   -3.9911   57.2049 H       1  ZINC000534890536    0.1300
     51 H51        -8.3002   -3.7009   59.5460 H       1  ZINC000534890536    0.1400
     52 H52        -9.9039   -2.8741   61.2204 H       1  ZINC000534890536    0.1400
     53 H53       -15.1924    1.4862   54.2978 H       1  ZINC000534890536    0.0800
     54 H54       -13.5831    2.2622   54.4117 H       1  ZINC000534890536    0.0700
     55 H55       -12.8461    2.7432   53.0818 H       1  ZINC000534890536    0.1300
     56 H56       -11.8158    3.1617   50.8859 H       1  ZINC000534890536    0.1300
@<TRIPOS>BOND
     1     1     2    1
     2     1    33    1
     3     1    34    1
     4     1    35    1
     5     2     3    1
     6     3    32   ar
     7     3     4   ar
     8     4     5   ar
     9     4    36    1
    10     5     6   ar
    11     5    37    1
    12     6     7    1
    13     6    31   ar
    14     7     8    1
    15     7    30    1
    16     7     9    1
    17     9    10    1
    18     9    38    1
    19     9    39    1
    20    10    11    1
    21    10    40    1
    22    10    41    1
    23    11    12   am
    24    11    30    1
    25    12    13    2
    26    12    14   am
    27    14    15    1
    28    14    42    1
    29    15    16    1
    30    15    28    1
    31    15    17    1
    32    17    18    1
    33    17    43    1
    34    17    44    1
    35    18    19    1
    36    18    45    1
    37    18    46    1
    38    19    20    1
    39    19    47    1
    40    19    48    1
    41    20    21    1
    42    20    28   am
    43    21    26   ar
    44    21    22   ar
    45    22    23   ar
    46    22    49    1
    47    23    24   ar
    48    23    50    1
    49    24    25   ar
    50    24    51    1
    51    25    26   ar
    52    25    52    1
    53    26    27    1
    54    28    29    2
    55    30    53    1
    56    30    54    1
    57    31    32   ar
    58    31    55    1
    59    32    56    1
@<TRIPOS>SUBSTRUCTURE
     1 ZINC000534890536        1 TEMP              0 ****  ****    0 ROOT


##########                                Name:    ZINC000590699876
##########                DOCK_Rotatable_Bonds:                   9
##########                         Heavy_Atoms:                  30
##########                    Molecular_Weight:              421.54
##########                DOCK_Rotatable_Bonds:                   9
##########                       Formal_Charge:          -0.0300004
##########                     HBond_Acceptors:                   9
##########                        HBond_Donors:                   1
##########                         Heavy_Atoms:                  30
##########                          Grid_Score:          -20.158171
##########                     Grid_vdw_energy:          -20.443502
##########                      Grid_es_energy:            0.285331
##########           Internal_energy_repulsive:          128.170593

@<TRIPOS>MOLECULE
ZINC000590699876
 65 67 1 0 0
SMALL
USER_CHARGES


@<TRIPOS>ATOM
      1 C1         -8.7909    5.7982   59.5400 C.3     1  ZINC000590699876   -0.1700
      2 C2         -9.5044    5.7606   58.2132 C.2     1  ZINC000590699876    0.5100
      3 O3         -8.9949    6.2668   57.2361 O.2     1  ZINC000590699876   -0.5500
      4 N4        -10.7088    5.1642   58.1125 N.am    1  ZINC000590699876   -0.7200
      5 C5        -11.4018    5.1260   56.8223 C.3     1  ZINC000590699876    0.1100
      6 C6        -12.2557    3.8865   56.7471 C.2     1  ZINC000590699876    0.5300
      7 O7        -11.9225    2.8837   57.3423 O.2     1  ZINC000590699876   -0.5200
      8 N8        -13.3892    3.8923   56.0183 N.am    1  ZINC000590699876   -0.6000
      9 C9        -13.9101    5.0368   55.2486 C.3     1  ZINC000590699876    0.1000
     10 C10       -14.8033    4.4041   54.1525 C.3     1  ZINC000590699876   -0.1300
     11 C11       -15.4465    3.2192   54.9205 C.3     1  ZINC000590699876   -0.1300
     12 C12       -14.3081    2.7564   55.8540 C.3     1  ZINC000590699876    0.1200
     13 H13       -14.7164    2.4730   56.8241 H       1  ZINC000590699876    0.1000
     14 C14       -13.5861    1.5848   55.2400 C.2     1  ZINC000590699876    0.5100
     15 O15       -12.6338    1.7728   54.5128 O.2     1  ZINC000590699876   -0.5200
     16 N16       -13.9985    0.3282   55.4989 N.am    1  ZINC000590699876   -0.6100
     17 C17       -13.3033   -0.8297   54.9163 C.3     1  ZINC000590699876    0.1000
     18 C18       -12.9688   -1.8137   56.0423 C.3     1  ZINC000590699876    0.0400
     19 N19       -14.1934   -2.1349   56.7875 N.3     1  ZINC000590699876   -0.5200
     20 C20       -13.9497   -3.2043   57.7648 C.3     1  ZINC000590699876    0.0400
     21 C21       -12.4740   -3.2908   58.0572 C.2     1  ZINC000590699876    0.5200
     22 O22       -11.7546   -3.9665   57.3523 O.2     1  ZINC000590699876   -0.5100
     23 N23       -11.9534   -2.6173   59.1021 N.am    1  ZINC000590699876   -0.6100
     24 C24       -12.8120   -1.7946   59.9651 C.3     1  ZINC000590699876    0.1100
     25 C25       -12.2250   -0.3817   60.0416 C.3     1  ZINC000590699876   -0.1400
     26 C26       -10.7671   -0.4634   60.4999 C.3     1  ZINC000590699876   -0.1200
     27 C27        -9.9554   -1.2693   59.4831 C.3     1  ZINC000590699876   -0.1300
     28 C28       -10.5176   -2.6967   59.4037 C.3     1  ZINC000590699876    0.1400
     29 H29       -10.3665   -3.2026   60.3573 H       1  ZINC000590699876    0.0700
     30 C30        -9.8012   -3.4691   58.2941 C.3     1  ZINC000590699876   -0.1400
     31 C31       -14.7483   -0.9417   57.4402 C.3     1  ZINC000590699876    0.0400
     32 C32       -15.1521    0.0779   56.3764 C.3     1  ZINC000590699876    0.1200
     33 H33        -7.8394    6.3175   59.4262 H       1  ZINC000590699876    0.1000
     34 H34        -9.4070    6.3243   60.2692 H       1  ZINC000590699876    0.0900
     35 H35        -8.6101    4.7800   59.8844 H       1  ZINC000590699876    0.0900
     36 H36       -11.1169    4.7603   58.8943 H       1  ZINC000590699876    0.4100
     37 H37       -12.0334    6.0088   56.7228 H       1  ZINC000590699876    0.1000
     38 H38       -10.6682    5.1114   56.0162 H       1  ZINC000590699876    0.1000
     39 H39       -14.5023    5.6882   55.8914 H       1  ZINC000590699876    0.0800
     40 H40       -13.0901    5.5936   54.7951 H       1  ZINC000590699876    0.0800
     41 H41       -15.5631    5.1080   53.8131 H       1  ZINC000590699876    0.0900
     42 H42       -14.2020    4.0473   53.3163 H       1  ZINC000590699876    0.0800
     43 H43       -16.3093    3.5552   55.4955 H       1  ZINC000590699876    0.1000
     44 H44       -15.7269    2.4210   54.2332 H       1  ZINC000590699876    0.0900
     45 H45       -13.9499   -1.3154   54.1856 H       1  ZINC000590699876    0.0800
     46 H46       -12.3836   -0.4995   54.4333 H       1  ZINC000590699876    0.0900
     47 H47       -12.5524   -2.7264   55.6160 H       1  ZINC000590699876    0.0900
     48 H48       -12.2409   -1.3617   56.7162 H       1  ZINC000590699876    0.0400
     49 H49       -14.4904   -2.9851   58.6855 H       1  ZINC000590699876    0.1000
     50 H50       -14.2958   -4.1543   57.3577 H       1  ZINC000590699876    0.0600
     51 H51       -13.8169   -1.7505   59.5454 H       1  ZINC000590699876    0.0800
     52 H52       -12.8497   -2.2292   60.9640 H       1  ZINC000590699876    0.0700
     53 H53       -12.2714    0.0854   59.0578 H       1  ZINC000590699876    0.0700
     54 H54       -12.7976    0.2121   60.7541 H       1  ZINC000590699876    0.0800
     55 H55       -10.3543    0.5423   60.5788 H       1  ZINC000590699876    0.0700
     56 H56       -10.7191   -0.9527   61.4726 H       1  ZINC000590699876    0.0600
     57 H57       -10.0232   -0.7939   58.5045 H       1  ZINC000590699876    0.0700
     58 H58        -8.9126   -1.3073   59.7982 H       1  ZINC000590699876    0.0700
     59 H59        -8.7272   -3.4597   58.4800 H       1  ZINC000590699876    0.0400
     60 H60       -10.1583   -4.4989   58.2794 H       1  ZINC000590699876    0.0700
     61 H61       -10.0077   -2.9991   57.3326 H       1  ZINC000590699876    0.0700
     62 H62       -15.6227   -1.2219   58.0277 H       1  ZINC000590699876    0.1100
     63 H63       -13.9957   -0.5018   58.0946 H       1  ZINC000590699876    0.0300
     64 H64       -15.4569    1.0074   56.8571 H       1  ZINC000590699876    0.0900
     65 H65       -15.9764   -0.3184   55.7835 H       1  ZINC000590699876    0.0800
@<TRIPOS>BOND
     1     1     2    1
     2     1    33    1
     3     1    34    1
     4     1    35    1
     5     2     3    2
     6     2     4   am
     7     4     5    1
     8     4    36    1
     9     5     6    1
    10     5    37    1
    11     5    38    1
    12     6     7    2
    13     6     8   am
    14     8    12    1
    15     8     9    1
    16     9    10    1
    17     9    39    1
    18     9    40    1
    19    10    11    1
    20    10    41    1
    21    10    42    1
    22    11    12    1
    23    11    43    1
    24    11    44    1
    25    12    13    1
    26    12    14    1
    27    14    15    2
    28    14    16   am
    29    16    32    1
    30    16    17    1
    31    17    18    1
    32    17    45    1
    33    17    46    1
    34    18    19    1
    35    18    47    1
    36    18    48    1
    37    19    20    1
    38    19    31    1
    39    20    21    1
    40    20    49    1
    41    20    50    1
    42    21    22    2
    43    21    23   am
    44    23    28    1
    45    23    24    1
    46    24    25    1
    47    24    51    1
    48    24    52    1
    49    25    26    1
    50    25    53    1
    51    25    54    1
    52    26    27    1
    53    26    55    1
    54    26    56    1
    55    27    28    1
    56    27    57    1
    57    27    58    1
    58    28    29    1
    59    28    30    1
    60    30    59    1
    61    30    60    1
    62    30    61    1
    63    31    32    1
    64    31    62    1
    65    31    63    1
    66    32    64    1
    67    32    65    1
@<TRIPOS>SUBSTRUCTURE
     1 ZINC000590699876        1 TEMP              0 ****  ****    0 ROOT


##########                                Name:    ZINC000965273005
##########                DOCK_Rotatable_Bonds:                   7
##########                         Heavy_Atoms:                  27
##########                    Molecular_Weight:             368.436
##########                DOCK_Rotatable_Bonds:                   7
##########                       Formal_Charge:           0.0100003
##########                     HBond_Acceptors:                   7
##########                        HBond_Donors:                   2
##########                         Heavy_Atoms:                  27
##########                          Grid_Score:          -20.083885
##########                     Grid_vdw_energy:          -18.709913
##########                      Grid_es_energy:           -1.373972
##########           Internal_energy_repulsive:           44.505913

@<TRIPOS>MOLECULE
ZINC000965273005
 51 54 1 0 0
SMALL
USER_CHARGES


@<TRIPOS>ATOM
      1 C1         -7.8001   -3.6966   55.4306 C.3     1  ZINC000965273005   -0.1200
      2 C2         -7.1116   -3.7075   56.7710 C.ar    1  ZINC000965273005   -0.0300
      3 C3         -5.7367   -3.7948   56.8412 C.ar    1  ZINC000965273005   -0.1200
      4 C4         -5.1030   -3.8049   58.0713 C.ar    1  ZINC000965273005   -0.0900
      5 C5         -5.8424   -3.7273   59.2379 C.ar    1  ZINC000965273005   -0.1300
      6 C6         -7.2183   -3.6396   59.1817 C.ar    1  ZINC000965273005   -0.0900
      7 C7         -7.8633   -3.6235   57.9443 C.ar    1  ZINC000965273005   -0.1300
      8 C8         -9.3373   -3.5298   57.8765 C.2     1  ZINC000965273005    0.5800
      9 O9         -9.9471   -4.1481   57.0261 O.2     1  ZINC000965273005   -0.5200
     10 N10       -10.0046   -2.7587   58.7576 N.am    1  ZINC000965273005   -0.6100
     11 C11        -9.3929   -1.9540   59.8309 C.3     1  ZINC000965273005    0.0900
     12 C12       -10.4223   -0.8338   60.1225 C.3     1  ZINC000965273005    0.1500
     13 H13       -10.3113   -0.4561   61.1390 H       1  ZINC000965273005    0.1200
     14 N14       -10.3071    0.2524   59.1463 N.am    1  ZINC000965273005   -0.7100
     15 C15       -10.8769    1.4476   59.3977 C.2     1  ZINC000965273005    0.6000
     16 O16       -11.4880    1.6240   60.4342 O.2     1  ZINC000965273005   -0.5400
     17 C17       -10.7595    2.5413   58.4160 C.2     1  ZINC000965273005   -0.2800
     18 C18        -9.8375    3.5683   58.4399 C.2     1  ZINC000965273005    0.1000
     19 N19       -10.0736    4.3453   57.3707 N.pl3   1  ZINC000965273005   -0.3600
     20 C20        -9.3259    5.5515   57.0072 C.3     1  ZINC000965273005    0.1000
     21 N21       -11.1537    3.8080   56.6616 N.2     1  ZINC000965273005   -0.3000
     22 C22       -11.5658    2.7311   57.2714 C.2     1  ZINC000965273005    0.1700
     23 C23       -12.7083    1.8496   56.8370 C.3     1  ZINC000965273005   -0.0800
     24 C24       -13.6920    2.4210   55.8139 C.3     1  ZINC000965273005   -0.1700
     25 C25       -12.6965    1.3371   55.3954 C.3     1  ZINC000965273005   -0.1600
     26 C26       -11.7650   -1.5933   59.9549 C.3     1  ZINC000965273005    0.0900
     27 H27       -12.0207   -2.1307   60.8681 H       1  ZINC000965273005    0.0900
     28 O28       -12.8129   -0.6930   59.5900 O.3     1  ZINC000965273005   -0.5500
     29 C29       -11.4627   -2.5755   58.8038 C.3     1  ZINC000965273005    0.0600
     30 H30        -7.9819   -2.6666   55.1239 H       1  ZINC000965273005    0.0800
     31 H31        -7.1667   -4.1890   54.6927 H       1  ZINC000965273005    0.0700
     32 H32        -8.7497   -4.2264   55.5055 H       1  ZINC000965273005    0.0700
     33 H33        -5.1537   -3.8556   55.9341 H       1  ZINC000965273005    0.1300
     34 H34        -4.0264   -3.8740   58.1208 H       1  ZINC000965273005    0.1300
     35 H35        -5.3417   -3.7356   60.1948 H       1  ZINC000965273005    0.1300
     36 H36        -7.7944   -3.5794   60.0932 H       1  ZINC000965273005    0.1300
     37 H37        -9.2348   -2.5648   60.7198 H       1  ZINC000965273005    0.0900
     38 H38        -8.4502   -1.5241   59.4924 H       1  ZINC000965273005    0.0900
     39 H39        -9.8207    0.1114   58.3189 H       1  ZINC000965273005    0.4000
     40 H40        -9.0681    3.7196   59.1826 H       1  ZINC000965273005    0.1800
     41 H41        -8.4918    5.2809   56.3599 H       1  ZINC000965273005    0.0800
     42 H42        -9.9847    6.2426   56.4812 H       1  ZINC000965273005    0.1000
     43 H43        -8.9452    6.0288   57.9102 H       1  ZINC000965273005    0.0900
     44 H44       -13.1080    1.1859   57.6037 H       1  ZINC000965273005    0.1400
     45 H45       -14.7392    2.1335   55.9075 H       1  ZINC000965273005    0.1000
     46 H46       -13.5127    3.4345   55.4550 H       1  ZINC000965273005    0.1000
     47 H47       -11.8625    1.6376   54.7612 H       1  ZINC000965273005    0.0900
     48 H48       -13.0889    0.3365   55.2137 H       1  ZINC000965273005    0.1000
     49 H49       -12.6204   -0.1630   58.8045 H       1  ZINC000965273005    0.3900
     50 H50       -11.8193   -2.1620   57.8604 H       1  ZINC000965273005    0.0800
     51 H51       -11.9456   -3.5334   58.9973 H       1  ZINC000965273005    0.0800
@<TRIPOS>BOND
     1     1     2    1
     2     1    30    1
     3     1    31    1
     4     1    32    1
     5     2     7   ar
     6     2     3   ar
     7     3     4   ar
     8     3    33    1
     9     4     5   ar
    10     4    34    1
    11     5     6   ar
    12     5    35    1
    13     6     7   ar
    14     6    36    1
    15     7     8    1
    16     8     9    2
    17     8    10   am
    18    10    29    1
    19    10    11    1
    20    11    12    1
    21    11    37    1
    22    11    38    1
    23    12    13    1
    24    12    14    1
    25    12    26    1
    26    14    15   am
    27    14    39    1
    28    15    16    2
    29    15    17    1
    30    17    22    1
    31    17    18    2
    32    18    19    1
    33    18    40    1
    34    19    20    1
    35    19    21    1
    36    20    41    1
    37    20    42    1
    38    20    43    1
    39    21    22    2
    40    22    23    1
    41    23    25    1
    42    23    24    1
    43    23    44    1
    44    24    25    1
    45    24    45    1
    46    24    46    1
    47    25    47    1
    48    25    48    1
    49    26    27    1
    50    26    28    1
    51    26    29    1
    52    28    49    1
    53    29    50    1
    54    29    51    1
@<TRIPOS>SUBSTRUCTURE
     1 ZINC000965273005        1 TEMP              0 ****  ****    0 ROOT


##########                                Name:    ZINC000822449555
##########                DOCK_Rotatable_Bonds:                   5
##########                         Heavy_Atoms:                  27
##########                    Molecular_Weight:             366.383
##########                DOCK_Rotatable_Bonds:                   5
##########                       Formal_Charge:          -0.0100009
##########                     HBond_Acceptors:                  10
##########                        HBond_Donors:                   2
##########                         Heavy_Atoms:                  27
##########                          Grid_Score:          -20.038830
##########                     Grid_vdw_energy:          -19.687117
##########                      Grid_es_energy:           -0.351713
##########           Internal_energy_repulsive:           23.904696

@<TRIPOS>MOLECULE
ZINC000822449555
 45 48 1 0 0
SMALL
USER_CHARGES


@<TRIPOS>ATOM
      1 C1        -13.4542    2.4037   60.5341 C.3     1  ZINC000822449555   -0.1100
      2 C2        -12.8831    1.0111   60.4580 C.ar    1  ZINC000822449555    0.1400
      3 N3        -13.5068    0.0882   59.7510 N.ar    1  ZINC000822449555   -0.5000
      4 C4        -13.0418   -1.1476   59.6560 C.ar    1  ZINC000822449555    0.3000
      5 N5        -13.7350   -2.0874   58.8980 N.3     1  ZINC000822449555   -0.4700
      6 C6        -13.6773   -1.7561   57.4669 C.3     1  ZINC000822449555    0.0200
      7 C7        -14.3990   -2.8440   56.6672 C.3     1  ZINC000822449555    0.0600
      8 O8        -15.7428   -2.9647   57.1412 O.3     1  ZINC000822449555   -0.3800
      9 C9        -15.8362   -3.2876   58.5314 C.3     1  ZINC000822449555    0.0600
     10 C10       -15.1291   -2.2041   59.3499 C.3     1  ZINC000822449555    0.0300
     11 C11       -11.8685   -1.5176   60.3046 C.ar    1  ZINC000822449555   -0.1700
     12 C12       -11.1876   -0.5765   61.0551 C.ar    1  ZINC000822449555   -0.0500
     13 C13       -11.7050    0.7159   61.1274 C.ar    1  ZINC000822449555    0.0600
     14 N14       -11.0486    1.7016   61.8761 N.am    1  ZINC000822449555   -0.6600
     15 C15       -10.3472    1.3581   62.9745 C.2     1  ZINC000822449555    0.5700
     16 O16       -10.2842    0.1928   63.3159 O.2     1  ZINC000822449555   -0.5100
     17 C17        -9.6553    2.3974   63.7637 C.ar    1  ZINC000822449555   -0.1800
     18 C18        -8.9492    2.0552   64.9249 C.ar    1  ZINC000822449555   -0.0100
     19 C19        -8.3181    3.0613   65.6299 C.ar    1  ZINC000822449555   -0.1300
     20 C20        -8.4035    4.3735   65.1668 C.ar    1  ZINC000822449555    0.2300
     21 C21        -7.7286    5.4600   65.9179 C.2     1  ZINC000822449555    0.2100
     22 N22        -7.0171    5.3312   67.0208 N.2     1  ZINC000822449555   -0.2500
     23 N23        -6.6008    6.5025   67.3604 N.pl3   1  ZINC000822449555   -0.2200
     24 N24        -7.0254    7.3692   66.5084 N.2     1  ZINC000822449555   -0.0400
     25 N25        -7.7182    6.7638   65.6044 N.2     1  ZINC000822449555   -0.2500
     26 N26        -9.0804    4.6634   64.0621 N.ar    1  ZINC000822449555   -0.4500
     27 C27        -9.6905    3.7340   63.3598 C.ar    1  ZINC000822449555    0.1400
     28 H28       -13.0518    3.0063   59.7197 H       1  ZINC000822449555    0.0800
     29 H29       -14.5398    2.3563   60.4489 H       1  ZINC000822449555    0.0800
     30 H30       -13.1839    2.8556   61.4884 H       1  ZINC000822449555    0.0700
     31 H31       -14.1634   -0.7956   57.2957 H       1  ZINC000822449555    0.0600
     32 H32       -12.6365   -1.6999   57.1480 H       1  ZINC000822449555    0.1000
     33 H33       -14.4083   -2.5738   55.6113 H       1  ZINC000822449555    0.1100
     34 H34       -13.8808   -3.7944   56.7958 H       1  ZINC000822449555    0.0600
     35 H35       -16.8851   -3.3382   58.8236 H       1  ZINC000822449555    0.1000
     36 H36       -15.3599   -4.2507   58.7141 H       1  ZINC000822449555    0.0600
     37 H37       -15.1481   -2.4749   60.4055 H       1  ZINC000822449555    0.1000
     38 H38       -15.6385   -1.2508   59.2088 H       1  ZINC000822449555    0.0600
     39 H39       -11.4941   -2.5273   60.2235 H       1  ZINC000822449555    0.1400
     40 H40       -10.2742   -0.8357   61.5698 H       1  ZINC000822449555    0.1500
     41 H41       -11.0988    2.6312   61.6037 H       1  ZINC000822449555    0.4100
     42 H42        -8.9002    1.0298   65.2606 H       1  ZINC000822449555    0.1600
     43 H43        -7.7653    2.8341   66.5294 H       1  ZINC000822449555    0.1600
     44 H44        -6.0533    6.7001   68.1362 H       1  ZINC000822449555    0.4800
     45 H45       -10.2314    4.0082   62.4662 H       1  ZINC000822449555    0.1700
@<TRIPOS>BOND
     1     1     2    1
     2     1    28    1
     3     1    29    1
     4     1    30    1
     5     2    13   ar
     6     2     3   ar
     7     3     4   ar
     8     4     5    1
     9     4    11   ar
    10     5    10    1
    11     5     6    1
    12     6     7    1
    13     6    31    1
    14     6    32    1
    15     7     8    1
    16     7    33    1
    17     7    34    1
    18     8     9    1
    19     9    10    1
    20     9    35    1
    21     9    36    1
    22    10    37    1
    23    10    38    1
    24    11    12   ar
    25    11    39    1
    26    12    13   ar
    27    12    40    1
    28    13    14    1
    29    14    15   am
    30    14    41    1
    31    15    16    2
    32    15    17    1
    33    17    27   ar
    34    17    18   ar
    35    18    19   ar
    36    18    42    1
    37    19    20   ar
    38    19    43    1
    39    20    21    1
    40    20    26   ar
    41    21    25    1
    42    21    22    2
    43    22    23    1
    44    23    24    1
    45    23    44    1
    46    24    25    2
    47    26    27   ar
    48    27    45    1
@<TRIPOS>SUBSTRUCTURE
     1 ZINC000822449555        1 TEMP              0 ****  ****    0 ROOT


##########                                Name:    ZINC000132775118
##########                DOCK_Rotatable_Bonds:                   5
##########                         Heavy_Atoms:                  27
##########                    Molecular_Weight:             376.499
##########                DOCK_Rotatable_Bonds:                   5
##########                       Formal_Charge:        -4.76837e-07
##########                     HBond_Acceptors:                   7
##########                        HBond_Donors:                   1
##########                         Heavy_Atoms:                  27
##########                          Grid_Score:          -19.991217
##########                     Grid_vdw_energy:          -17.465509
##########                      Grid_es_energy:           -2.525707
##########           Internal_energy_repulsive:           23.027540

@<TRIPOS>MOLECULE
ZINC000132775118
 59 62 1 0 0
SMALL
USER_CHARGES


@<TRIPOS>ATOM
      1 O1        -13.7511    3.6427   59.2911 O.2     1  ZINC000132775118   -0.5200
      2 C2        -12.8678    2.9713   58.8014 C.2     1  ZINC000132775118    0.5200
      3 C3        -13.2129    1.8063   57.9099 C.3     1  ZINC000132775118    0.0300
      4 N4        -12.9967    0.5501   58.6402 N.3     1  ZINC000132775118   -0.5100
      5 C5        -13.3747    0.6909   60.0541 C.3     1  ZINC000132775118    0.0300
      6 C6        -13.3589   -0.6438   60.7418 C.2     1  ZINC000132775118    0.5300
      7 O7        -13.3651   -0.6679   61.9544 O.2     1  ZINC000132775118   -0.5500
      8 N8        -13.3389   -1.8093   60.0811 N.am    1  ZINC000132775118   -0.7200
      9 C9        -13.2619   -1.8703   58.6280 C.3     1  ZINC000132775118    0.1500
     10 H10       -12.2242   -2.0293   58.3349 H       1  ZINC000132775118    0.0800
     11 C11       -14.1149   -3.0058   58.0670 C.3     1  ZINC000132775118   -0.1300
     12 C12       -13.9389   -3.0526   56.5458 C.3     1  ZINC000132775118   -0.1200
     13 C13       -14.3672   -1.7207   55.9292 C.3     1  ZINC000132775118   -0.1200
     14 C14       -13.5309   -0.5790   56.5157 C.3     1  ZINC000132775118   -0.1200
     15 C15       -13.7507   -0.5501   58.0286 C.3     1  ZINC000132775118    0.0700
     16 H16       -14.8113   -0.4107   58.2375 H       1  ZINC000132775118    0.0600
     17 N17       -11.5773    3.2706   59.0499 N.am    1  ZINC000132775118   -0.6200
     18 C18       -10.4960    2.4740   58.4542 C.3     1  ZINC000132775118    0.1100
     19 C19        -9.5371    3.4159   57.7192 C.3     1  ZINC000132775118   -0.1200
     20 C20        -9.0585    4.5040   58.6831 C.3     1  ZINC000132775118   -0.1000
     21 C21        -8.0885    5.4127   57.9729 C.2     1  ZINC000132775118    0.5300
     22 O22        -8.4945    6.3941   57.3873 O.2     1  ZINC000132775118   -0.5300
     23 N23        -6.7698    5.1347   57.9884 N.am    1  ZINC000132775118   -0.6200
     24 C24        -5.7177    5.9357   57.3456 C.3     1  ZINC000132775118    0.1000
     25 C25        -4.3746    5.2215   57.6061 C.3     1  ZINC000132775118   -0.1300
     26 C26        -4.8086    3.7607   57.8977 C.3     1  ZINC000132775118   -0.1300
     27 C27        -6.1428    3.9808   58.6582 C.3     1  ZINC000132775118    0.1000
     28 C28       -10.2582    5.3199   59.1704 C.3     1  ZINC000132775118   -0.1200
     29 C29       -11.2252    4.4033   59.9169 C.3     1  ZINC000132775118    0.1200
     30 H30       -14.2580    1.8764   57.6088 H       1  ZINC000132775118    0.0700
     31 H31       -12.5775    1.8258   57.0244 H       1  ZINC000132775118    0.1200
     32 H32       -12.6699    1.3587   60.5495 H       1  ZINC000132775118    0.1300
     33 H33       -14.3764    1.1159   60.1175 H       1  ZINC000132775118    0.0700
     34 H34       -13.3764   -2.6370   60.5855 H       1  ZINC000132775118    0.4000
     35 H35       -13.7936   -3.9527   58.5010 H       1  ZINC000132775118    0.0800
     36 H36       -15.1630   -2.8286   58.3081 H       1  ZINC000132775118    0.0700
     37 H37       -12.8919   -3.2411   56.3082 H       1  ZINC000132775118    0.0700
     38 H38       -14.5517   -3.8551   56.1351 H       1  ZINC000132775118    0.0700
     39 H39       -14.2216   -1.7583   54.8496 H       1  ZINC000132775118    0.0700
     40 H40       -15.4212   -1.5448   56.1445 H       1  ZINC000132775118    0.0600
     41 H41       -12.4771   -0.7467   56.2930 H       1  ZINC000132775118    0.0800
     42 H42       -13.8514    0.3683   56.0822 H       1  ZINC000132775118    0.0700
     43 H43        -9.9572    1.9441   59.2396 H       1  ZINC000132775118    0.0800
     44 H44       -10.9163    1.7572   57.7487 H       1  ZINC000132775118    0.0900
     45 H45        -8.6798    2.8502   57.3546 H       1  ZINC000132775118    0.0800
     46 H46       -10.0539    3.8771   56.8776 H       1  ZINC000132775118    0.0800
     47 H47        -8.5638    4.0409   59.5369 H       1  ZINC000132775118    0.0900
     48 H48        -5.9025    5.9981   56.2732 H       1  ZINC000132775118    0.0700
     49 H49        -5.6960    6.9355   57.7790 H       1  ZINC000132775118    0.0700
     50 H50        -3.7370    5.2654   56.7233 H       1  ZINC000132775118    0.0800
     51 H51        -3.8694    5.6535   58.4701 H       1  ZINC000132775118    0.0800
     52 H52        -4.9694    3.2087   56.9717 H       1  ZINC000132775118    0.0800
     53 H53        -4.0791    3.2553   58.5305 H       1  ZINC000132775118    0.0900
     54 H54        -5.9490    4.2035   59.7074 H       1  ZINC000132775118    0.0700
     55 H55        -6.7804    3.1014   58.5676 H       1  ZINC000132775118    0.0800
     56 H56        -9.9140    6.1094   59.8386 H       1  ZINC000132775118    0.0800
     57 H57       -10.7682    5.7632   58.3151 H       1  ZINC000132775118    0.0800
     58 H58       -12.1258    4.9583   60.1792 H       1  ZINC000132775118    0.1000
     59 H59       -10.7479    4.0283   60.8223 H       1  ZINC000132775118    0.0700
@<TRIPOS>BOND
     1     1     2    2
     2     2     3    1
     3     2    17   am
     4     3     4    1
     5     3    30    1
     6     3    31    1
     7     4    15    1
     8     4     5    1
     9     5     6    1
    10     5    32    1
    11     5    33    1
    12     6     7    2
    13     6     8   am
    14     8     9    1
    15     8    34    1
    16     9    10    1
    17     9    15    1
    18     9    11    1
    19    11    12    1
    20    11    35    1
    21    11    36    1
    22    12    13    1
    23    12    37    1
    24    12    38    1
    25    13    14    1
    26    13    39    1
    27    13    40    1
    28    14    15    1
    29    14    41    1
    30    14    42    1
    31    15    16    1
    32    17    29    1
    33    17    18    1
    34    18    19    1
    35    18    43    1
    36    18    44    1
    37    19    20    1
    38    19    45    1
    39    19    46    1
    40    20    21    1
    41    20    28    1
    42    20    47    1
    43    21    22    2
    44    21    23   am
    45    23    27    1
    46    23    24    1
    47    24    25    1
    48    24    48    1
    49    24    49    1
    50    25    26    1
    51    25    50    1
    52    25    51    1
    53    26    27    1
    54    26    52    1
    55    26    53    1
    56    27    54    1
    57    27    55    1
    58    28    29    1
    59    28    56    1
    60    28    57    1
    61    29    58    1
    62    29    59    1
@<TRIPOS>SUBSTRUCTURE
     1 ZINC000132775118        1 TEMP              0 ****  ****    0 ROOT


##########                                Name:    ZINC000883773972
##########                DOCK_Rotatable_Bonds:                   4
##########                         Heavy_Atoms:                  23
##########                    Molecular_Weight:             343.447
##########                DOCK_Rotatable_Bonds:                   4
##########                       Formal_Charge:                0.01
##########                     HBond_Acceptors:                   8
##########                        HBond_Donors:                   1
##########                         Heavy_Atoms:                  23
##########                          Grid_Score:          -19.853769
##########                     Grid_vdw_energy:          -17.590843
##########                      Grid_es_energy:           -2.262926
##########           Internal_energy_repulsive:           16.196592

@<TRIPOS>MOLECULE
ZINC000883773972
 48 50 1 0 0
SMALL
USER_CHARGES


@<TRIPOS>ATOM
      1 C1         -7.9265    4.6867   67.3873 C.3     1  ZINC000883773972   -0.1700
      2 C2         -8.3947    5.1996   66.0498 C.2     1  ZINC000883773972    0.5300
      3 O3         -8.1865    6.3524   65.7357 O.2     1  ZINC000883773972   -0.5400
      4 N4         -9.0448    4.3773   65.2027 N.am    1  ZINC000883773972   -0.6200
      5 C5         -9.5597    4.7187   63.8665 C.3     1  ZINC000883773972    0.1100
      6 C6         -9.4720    3.4336   63.0266 C.3     1  ZINC000883773972   -0.1100
      7 H7         -8.6270    3.4554   62.3385 H       1  ZINC000883773972    0.1000
      8 C8        -10.8043    3.2141   62.2905 C.3     1  ZINC000883773972    0.1300
      9 N9        -11.1839    1.8119   62.5285 N.am    1  ZINC000883773972   -0.6400
     10 C10       -11.8756    1.0116   61.6931 C.2     1  ZINC000883773972    0.7300
     11 O11       -12.1220   -0.1348   62.0146 O.2     1  ZINC000883773972   -0.5800
     12 N12       -12.2938    1.4822   60.5015 N.am    1  ZINC000883773972   -0.7400
     13 C13       -13.0441    0.6118   59.5927 C.3     1  ZINC000883773972    0.1800
     14 H14       -13.3202    1.1730   58.6999 H       1  ZINC000883773972    0.1100
     15 C15       -12.1730   -0.5762   59.1948 C.3     1  ZINC000883773972   -0.1500
     16 C16       -12.8239   -1.3651   58.0624 C.3     1  ZINC000883773972   -0.1000
     17 C17       -14.0660   -2.0944   58.5797 C.3     1  ZINC000883773972   -0.5600
     18 H18       -13.7915   -2.7308   59.4209 H       1  ZINC000883773972    0.1400
     19 C19       -14.6591   -2.9525   57.4604 C.3     1  ZINC000883773972   -0.1400
     20 S20       -15.2903   -0.8661   59.1209 S.o2    1  ZINC000883773972    2.4200
     21 O21       -15.6325   -0.0459   58.0120 O.2     1  ZINC000883773972   -0.9200
     22 O22       -16.3207   -1.5352   59.8350 O.2     1  ZINC000883773972   -0.9300
     23 C23       -14.3112    0.1171   60.2937 C.3     1  ZINC000883773972   -0.6300
     24 C24       -10.6606    1.4542   63.8573 C.3     1  ZINC000883773972    0.1100
     25 C25        -9.3528    2.2811   64.0539 C.3     1  ZINC000883773972   -0.1100
     26 H26        -8.4612    1.6709   63.9091 H       1  ZINC000883773972    0.1000
     27 C27        -9.3731    2.9604   65.4303 C.3     1  ZINC000883773972    0.1100
     28 H28        -7.4255    5.4890   67.9290 H       1  ZINC000883773972    0.0900
     29 H29        -8.7840    4.3394   67.9637 H       1  ZINC000883773972    0.0900
     30 H30        -7.2314    3.8607   67.2366 H       1  ZINC000883773972    0.0900
     31 H31       -10.5960    5.0490   63.9380 H       1  ZINC000883773972    0.0800
     32 H32        -8.9473    5.5012   63.4182 H       1  ZINC000883773972    0.0900
     33 H33       -11.5674    3.8815   62.6911 H       1  ZINC000883773972    0.0700
     34 H34       -10.6754    3.3907   61.2227 H       1  ZINC000883773972    0.0900
     35 H35       -12.0982    2.3971   60.2455 H       1  ZINC000883773972    0.4000
     36 H36       -11.1991   -0.2134   58.8663 H       1  ZINC000883773972    0.0900
     37 H37       -12.0402   -1.2290   60.0575 H       1  ZINC000883773972    0.0800
     38 H38       -13.1121   -0.6813   57.2641 H       1  ZINC000883773972    0.0900
     39 H39       -12.1124   -2.0937   57.6736 H       1  ZINC000883773972    0.0900
     40 H40       -13.9198   -3.6834   57.1325 H       1  ZINC000883773972    0.0800
     41 H41       -15.5436   -3.4712   57.8301 H       1  ZINC000883773972    0.0700
     42 H42       -14.9363   -2.3144   56.6214 H       1  ZINC000883773972    0.0800
     43 H43       -14.0395   -0.5007   61.1498 H       1  ZINC000883773972    0.1400
     44 H44       -14.8968    0.9724   60.6308 H       1  ZINC000883773972    0.1400
     45 H45       -11.3897    1.7068   64.6270 H       1  ZINC000883773972    0.0800
     46 H46       -10.4302    0.3895   63.8944 H       1  ZINC000883773972    0.0800
     47 H47        -8.6448    2.4896   66.0906 H       1  ZINC000883773972    0.0900
     48 H48       -10.3704    2.8948   65.8652 H       1  ZINC000883773972    0.0700
@<TRIPOS>BOND
     1     1     2    1
     2     1    28    1
     3     1    29    1
     4     1    30    1
     5     2     3    2
     6     2     4   am
     7     4    27    1
     8     4     5    1
     9     5     6    1
    10     5    31    1
    11     5    32    1
    12     6     7    1
    13     6    25    1
    14     6     8    1
    15     8     9    1
    16     8    33    1
    17     8    34    1
    18     9    10   am
    19     9    24    1
    20    10    11    2
    21    10    12   am
    22    12    13    1
    23    12    35    1
    24    13    14    1
    25    13    23    1
    26    13    15    1
    27    15    16    1
    28    15    36    1
    29    15    37    1
    30    16    17    1
    31    16    38    1
    32    16    39    1
    33    17    18    1
    34    17    19    1
    35    17    20    1
    36    19    40    1
    37    19    41    1
    38    19    42    1
    39    20    21    2
    40    20    22    2
    41    20    23    1
    42    23    43    1
    43    23    44    1
    44    24    25    1
    45    24    45    1
    46    24    46    1
    47    25    26    1
    48    25    27    1
    49    27    47    1
    50    27    48    1
@<TRIPOS>SUBSTRUCTURE
     1 ZINC000883773972        1 TEMP              0 ****  ****    0 ROOT


##########                                Name:    ZINC000469391664
##########                DOCK_Rotatable_Bonds:                   6
##########                         Heavy_Atoms:                  29
##########                    Molecular_Weight:             408.524
##########                DOCK_Rotatable_Bonds:                   6
##########                       Formal_Charge:         -0.00999999
##########                     HBond_Acceptors:                   7
##########                        HBond_Donors:                   0
##########                         Heavy_Atoms:                  29
##########                          Grid_Score:          -19.055719
##########                     Grid_vdw_energy:          -19.040968
##########                      Grid_es_energy:           -0.014751
##########           Internal_energy_repulsive:           59.152077

@<TRIPOS>MOLECULE
ZINC000469391664
 53 56 1 0 0
SMALL
USER_CHARGES


@<TRIPOS>ATOM
      1 C1        -14.5796   -3.4270   58.8034 C.3     1  ZINC000469391664   -0.1500
      2 C2        -13.8567   -2.1951   59.3518 C.3     1  ZINC000469391664   -0.1000
      3 H3        -13.1373   -2.5039   60.1102 H       1  ZINC000469391664    0.0800
      4 C4        -14.8774   -1.2408   59.9759 C.3     1  ZINC000469391664   -0.1300
      5 C5        -14.1467   -0.0251   60.5545 C.3     1  ZINC000469391664    0.1100
      6 N6        -13.3232    0.5787   59.4980 N.am    1  ZINC000469391664   -0.6100
      7 C7        -13.4382    1.8885   59.2020 C.2     1  ZINC000469391664    0.5600
      8 O8        -14.2291    2.5825   59.8115 O.2     1  ZINC000469391664   -0.5000
      9 C9        -12.6046    2.4802   58.1387 C.ar    1  ZINC000469391664   -0.1100
     10 C10       -13.0522    2.4851   56.8158 C.ar    1  ZINC000469391664   -0.0900
     11 C11       -12.2688    3.0400   55.8268 C.ar    1  ZINC000469391664   -0.1000
     12 C12       -11.0374    3.5935   56.1377 C.ar    1  ZINC000469391664   -0.0900
     13 C13       -10.5811    3.5957   57.4406 C.ar    1  ZINC000469391664   -0.1000
     14 C14       -11.3593    3.0468   58.4511 C.ar    1  ZINC000469391664    0.1500
     15 N15       -10.9014    3.0479   59.7653 N.am    1  ZINC000469391664   -0.5800
     16 C16        -9.8887    2.0779   60.1890 C.3     1  ZINC000469391664    0.0900
     17 C17       -11.3897    3.9415   60.6483 C.2     1  ZINC000469391664    0.6100
     18 O18       -10.9892    3.9425   61.7976 O.2     1  ZINC000469391664   -0.5200
     19 C19       -12.4027    4.9117   60.2245 C.2     1  ZINC000469391664   -0.2600
     20 C20       -12.9673    5.8679   61.0216 C.2     1  ZINC000469391664   -0.0500
     21 C21       -13.8916    6.6457   60.3657 C.2     1  ZINC000469391664   -0.1500
     22 C22       -14.0793    6.3392   59.0767 C.2     1  ZINC000469391664   -0.2600
     23 S23       -13.0813    5.0374   58.6073 S.3     1  ZINC000469391664    0.2300
     24 C24       -12.3718   -0.2724   58.7706 C.3     1  ZINC000469391664    0.1000
     25 C25       -13.1228   -1.4851   58.2119 C.3     1  ZINC000469391664    0.1300
     26 H26       -13.8442   -1.1538   57.4650 H       1  ZINC000469391664    0.1000
     27 N27       -12.1684   -2.4091   57.5941 N.pl3   1  ZINC000469391664   -0.4500
     28 C28       -11.2532   -3.1889   58.2481 C.2     1  ZINC000469391664   -0.0500
     29 C29       -10.5854   -3.8803   57.3049 C.2     1  ZINC000469391664   -0.0300
     30 N30       -11.0794   -3.5321   56.1075 N.2     1  ZINC000469391664   -0.4900
     31 C31       -12.0315   -2.6550   56.2733 C.2     1  ZINC000469391664    0.1800
     32 H32       -13.8526   -4.1071   58.3594 H       1  ZINC000469391664    0.0600
     33 H33       -15.1020   -3.9331   59.6153 H       1  ZINC000469391664    0.0600
     34 H34       -15.2990   -3.1185   58.0450 H       1  ZINC000469391664    0.0600
     35 H35       -15.5823   -0.9120   59.2123 H       1  ZINC000469391664    0.0700
     36 H36       -15.4162   -1.7542   60.7722 H       1  ZINC000469391664    0.0900
     37 H37       -14.8748    0.7032   60.9114 H       1  ZINC000469391664    0.1000
     38 H38       -13.5082   -0.3410   61.3796 H       1  ZINC000469391664    0.0800
     39 H39       -14.0110    2.0543   56.5680 H       1  ZINC000469391664    0.1400
     40 H40       -12.6165    3.0430   54.8044 H       1  ZINC000469391664    0.1400
     41 H41       -10.4305    4.0256   55.3558 H       1  ZINC000469391664    0.1400
     42 H42        -9.6199    4.0287   57.6748 H       1  ZINC000469391664    0.1400
     43 H43        -8.8998    2.5311   60.1193 H       1  ZINC000469391664    0.0600
     44 H44       -10.0799    1.7797   61.2199 H       1  ZINC000469391664    0.0900
     45 H45        -9.9328    1.2011   59.5431 H       1  ZINC000469391664    0.0700
     46 H46       -12.7128    5.9990   62.0630 H       1  ZINC000469391664    0.1500
     47 H47       -14.4276    7.4455   60.8552 H       1  ZINC000469391664    0.1400
     48 H48       -14.7677    6.8505   58.4199 H       1  ZINC000469391664    0.1600
     49 H49       -11.9289    0.2927   57.9505 H       1  ZINC000469391664    0.1000
     50 H50       -11.5887   -0.6085   59.4502 H       1  ZINC000469391664    0.0800
     51 H51       -11.0964   -3.2397   59.3155 H       1  ZINC000469391664    0.1700
     52 H52        -9.7912   -4.5905   57.4816 H       1  ZINC000469391664    0.1700
     53 H53       -12.6095   -2.1967   55.4844 H       1  ZINC000469391664    0.2000
@<TRIPOS>BOND
     1     1     2    1
     2     1    32    1
     3     1    33    1
     4     1    34    1
     5     2     3    1
     6     2    25    1
     7     2     4    1
     8     4     5    1
     9     4    35    1
    10     4    36    1
    11     5     6    1
    12     5    37    1
    13     5    38    1
    14     6     7   am
    15     6    24    1
    16     7     8    2
    17     7     9    1
    18     9    14   ar
    19     9    10   ar
    20    10    11   ar
    21    10    39    1
    22    11    12   ar
    23    11    40    1
    24    12    13   ar
    25    12    41    1
    26    13    14   ar
    27    13    42    1
    28    14    15    1
    29    15    16    1
    30    15    17   am
    31    16    43    1
    32    16    44    1
    33    16    45    1
    34    17    18    2
    35    17    19    1
    36    19    23    1
    37    19    20    2
    38    20    21    1
    39    20    46    1
    40    21    22    2
    41    21    47    1
    42    22    23    1
    43    22    48    1
    44    24    25    1
    45    24    49    1
    46    24    50    1
    47    25    26    1
    48    25    27    1
    49    27    31    1
    50    27    28    1
    51    28    29    2
    52    28    51    1
    53    29    30    1
    54    29    52    1
    55    30    31    2
    56    31    53    1
@<TRIPOS>SUBSTRUCTURE
     1 ZINC000469391664        1 TEMP              0 ****  ****    0 ROOT


##########                                Name:    ZINC000506388363
##########                DOCK_Rotatable_Bonds:                   5
##########                         Heavy_Atoms:                  29
##########                    Molecular_Weight:             416.858
##########                DOCK_Rotatable_Bonds:                   5
##########                       Formal_Charge:         7.07805e-07
##########                     HBond_Acceptors:                   8
##########                        HBond_Donors:                   1
##########                         Heavy_Atoms:                  29
##########                          Grid_Score:          -19.027607
##########                     Grid_vdw_energy:          -18.725979
##########                      Grid_es_energy:           -0.301627
##########           Internal_energy_repulsive:            9.710754

@<TRIPOS>MOLECULE
ZINC000506388363
 48 51 1 0 0
SMALL
USER_CHARGES


@<TRIPOS>ATOM
      1 O1        -11.2155    4.8218   52.4580 O.2     1  ZINC000506388363   -0.5300
      2 C2        -10.5229    4.5953   53.4309 C.2     1  ZINC000506388363    0.5600
      3 C3         -9.0547    4.4978   53.2865 C.ar    1  ZINC000506388363   -0.1200
      4 C4         -8.2296    5.4779   53.8399 C.ar    1  ZINC000506388363   -0.0900
      5 C5         -6.8600    5.3814   53.7024 C.ar    1  ZINC000506388363   -0.1100
      6 C6         -6.3038    4.3163   53.0172 C.ar    1  ZINC000506388363   -0.0900
      7 C7         -7.1163    3.3401   52.4653 C.ar    1  ZINC000506388363   -0.0400
      8 Cl8        -6.4088    2.0070   51.6076 Cl      1  ZINC000506388363   -0.0600
      9 C9         -8.4879    3.4222   52.6010 C.ar    1  ZINC000506388363   -0.0600
     10 N10       -11.0929    4.4385   54.6421 N.am    1  ZINC000506388363   -0.6100
     11 C11       -12.5519    4.5255   54.8067 C.3     1  ZINC000506388363    0.1000
     12 C12       -13.0306    3.2852   55.5688 C.3     1  ZINC000506388363    0.0400
     13 N13       -12.2706    3.1594   56.8196 N.3     1  ZINC000506388363   -0.5300
     14 C14       -12.8144    2.0842   57.6600 C.3     1  ZINC000506388363    0.1200
     15 C15       -12.5862    2.4174   59.1119 C.2     1  ZINC000506388363   -0.2100
     16 C16       -12.8373    3.6051   59.7046 C.2     1  ZINC000506388363    0.0600
     17 N17       -12.5001    3.5002   61.0079 N.pl3   1  ZINC000506388363   -0.4700
     18 N18       -12.0232    2.2024   61.2319 N.2     1  ZINC000506388363   -0.2700
     19 C19       -12.0788    1.5439   60.0936 C.2     1  ZINC000506388363    0.1300
     20 C20       -11.6691    0.1338   59.8798 C.ar    1  ZINC000506388363   -0.0700
     21 C21       -12.5987   -0.8959   60.0277 C.ar    1  ZINC000506388363    0.1500
     22 F22       -13.8755   -0.6119   60.3657 F       1  ZINC000506388363   -0.1200
     23 C23       -12.2104   -2.2076   59.8272 C.ar    1  ZINC000506388363   -0.1600
     24 C24       -10.9040   -2.5000   59.4807 C.ar    1  ZINC000506388363   -0.0500
     25 C25        -9.9776   -1.4840   59.3325 C.ar    1  ZINC000506388363   -0.1600
     26 C26       -10.3542   -0.1676   59.5245 C.ar    1  ZINC000506388363    0.1600
     27 F27        -9.4481    0.8240   59.3795 F       1  ZINC000506388363   -0.1200
     28 C28       -10.8408    2.9494   56.5558 C.3     1  ZINC000506388363    0.0400
     29 C29       -10.2729    4.1698   55.8331 C.3     1  ZINC000506388363    0.1200
     30 H30        -8.6624    6.3106   54.3746 H       1  ZINC000506388363    0.1400
     31 H31        -6.2209    6.1395   54.1305 H       1  ZINC000506388363    0.1400
     32 H32        -5.2312    4.2461   52.9118 H       1  ZINC000506388363    0.1400
     33 H33        -9.1209    2.6604   52.1707 H       1  ZINC000506388363    0.1400
     34 H34       -12.8036    5.4225   55.3725 H       1  ZINC000506388363    0.0800
     35 H35       -13.0294    4.5606   53.8276 H       1  ZINC000506388363    0.1000
     36 H36       -14.0918    3.3853   55.7964 H       1  ZINC000506388363    0.0900
     37 H37       -12.8716    2.3980   54.9559 H       1  ZINC000506388363    0.0400
     38 H38       -13.8836    1.9832   57.4741 H       1  ZINC000506388363    0.1000
     39 H39       -12.3135    1.1465   57.4194 H       1  ZINC000506388363    0.0400
     40 H40       -13.2372    4.4841   59.2209 H       1  ZINC000506388363    0.1800
     41 H41       -12.5748    4.2019   61.6734 H       1  ZINC000506388363    0.4400
     42 H42       -12.9290   -3.0058   59.9417 H       1  ZINC000506388363    0.1500
     43 H43       -10.6057   -3.5263   59.3254 H       1  ZINC000506388363    0.1500
     44 H44        -8.9588   -1.7190   59.0621 H       1  ZINC000506388363    0.1500
     45 H45       -10.3142    2.8058   57.4992 H       1  ZINC000506388363    0.0900
     46 H46       -10.7125    2.0668   55.9291 H       1  ZINC000506388363    0.0400
     47 H47        -9.2436    3.9721   55.5340 H       1  ZINC000506388363    0.1000
     48 H48       -10.3050    5.0352   56.4953 H       1  ZINC000506388363    0.0800
@<TRIPOS>BOND
     1     1     2    2
     2     2     3    1
     3     2    10   am
     4     3     9   ar
     5     3     4   ar
     6     4     5   ar
     7     4    30    1
     8     5     6   ar
     9     5    31    1
    10     6     7   ar
    11     6    32    1
    12     7     8    1
    13     7     9   ar
    14     9    33    1
    15    10    29    1
    16    10    11    1
    17    11    12    1
    18    11    34    1
    19    11    35    1
    20    12    13    1
    21    12    36    1
    22    12    37    1
    23    13    14    1
    24    13    28    1
    25    14    15    1
    26    14    38    1
    27    14    39    1
    28    15    19    1
    29    15    16    2
    30    16    17    1
    31    16    40    1
    32    17    18    1
    33    17    41    1
    34    18    19    2
    35    19    20    1
    36    20    26   ar
    37    20    21   ar
    38    21    22    1
    39    21    23   ar
    40    23    24   ar
    41    23    42    1
    42    24    25   ar
    43    24    43    1
    44    25    26   ar
    45    25    44    1
    46    26    27    1
    47    28    29    1
    48    28    45    1
    49    28    46    1
    50    29    47    1
    51    29    48    1
@<TRIPOS>SUBSTRUCTURE
     1 ZINC000506388363        1 TEMP              0 ****  ****    0 ROOT


##########                                Name:    ZINC000462219577
##########                DOCK_Rotatable_Bonds:                   8
##########                         Heavy_Atoms:                  31
##########                    Molecular_Weight:             418.539
##########                DOCK_Rotatable_Bonds:                   8
##########                       Formal_Charge:         -0.00999914
##########                     HBond_Acceptors:                   6
##########                        HBond_Donors:                   2
##########                         Heavy_Atoms:                  31
##########                          Grid_Score:          -18.924532
##########                     Grid_vdw_energy:          -18.378595
##########                      Grid_es_energy:           -0.545937
##########           Internal_energy_repulsive:           44.077187

@<TRIPOS>MOLECULE
ZINC000462219577
 61 64 1 0 0
SMALL
USER_CHARGES


@<TRIPOS>ATOM
      1 C1        -10.4730    2.9157   63.8566 C.3     1  ZINC000462219577   -0.0700
      2 C2        -10.8688    2.2526   62.5624 C.2     1  ZINC000462219577    0.0800
      3 N3        -11.6369    1.1996   62.4437 N.2     1  ZINC000462219577   -0.2900
      4 N4        -11.7605    0.8990   61.0811 N.pl3   1  ZINC000462219577   -0.3200
      5 C5        -12.5008   -0.1578   60.5332 C.ar    1  ZINC000462219577    0.1500
      6 C6        -13.4970   -0.7705   61.2815 C.ar    1  ZINC000462219577   -0.1100
      7 C7        -14.2247   -1.8115   60.7389 C.ar    1  ZINC000462219577   -0.1000
      8 C8        -13.9616   -2.2439   59.4520 C.ar    1  ZINC000462219577   -0.1200
      9 C9        -12.9698   -1.6359   58.7045 C.ar    1  ZINC000462219577   -0.1000
     10 C10       -12.2432   -0.5901   59.2393 C.ar    1  ZINC000462219577   -0.1300
     11 C11       -11.0394    1.8091   60.3879 C.2     1  ZINC000462219577    0.0900
     12 C12       -10.8879    1.8684   58.8897 C.3     1  ZINC000462219577   -0.0800
     13 C13       -10.4879    3.2853   58.4734 C.3     1  ZINC000462219577    0.1700
     14 H14        -9.6208    3.6030   59.0523 H       1  ZINC000462219577    0.1000
     15 C15       -11.6535    4.2417   58.7341 C.3     1  ZINC000462219577   -0.1600
     16 N16       -10.1546    3.2993   57.0469 N.am    1  ZINC000462219577   -0.7400
     17 C17        -9.5351    4.3692   56.5101 C.2     1  ZINC000462219577    0.7100
     18 O18        -9.2516    5.3221   57.2100 O.2     1  ZINC000462219577   -0.5800
     19 N19        -9.2299    4.3828   55.1973 N.am    1  ZINC000462219577   -0.7400
     20 C20        -8.5550    5.5449   54.6142 C.3     1  ZINC000462219577    0.1600
     21 H21        -8.6324    6.3917   55.2962 H       1  ZINC000462219577    0.1000
     22 C22        -7.0788    5.2133   54.3745 C.3     1  ZINC000462219577   -0.1700
     23 C23        -6.9787    4.0736   53.3572 C.3     1  ZINC000462219577    0.0700
     24 O24        -7.6347    4.4579   52.1473 O.3     1  ZINC000462219577   -0.3700
     25 C25        -9.0283    4.7342   52.3016 C.3     1  ZINC000462219577    0.1400
     26 H26        -9.5330    3.8509   52.6929 H       1  ZINC000462219577    0.0600
     27 C27        -9.6193    5.0995   50.9643 C.ar    1  ZINC000462219577   -0.0900
     28 C28        -8.8659    5.8061   50.0454 C.ar    1  ZINC000462219577   -0.0900
     29 C29        -9.4081    6.1411   48.8188 C.ar    1  ZINC000462219577   -0.1200
     30 C30       -10.7033    5.7694   48.5108 C.ar    1  ZINC000462219577   -0.1200
     31 C31       -11.4564    5.0621   49.4293 C.ar    1  ZINC000462219577   -0.1200
     32 C32       -10.9128    4.7233   50.6543 C.ar    1  ZINC000462219577   -0.1100
     33 C33        -9.2123    5.9019   53.2775 C.3     1  ZINC000462219577   -0.1500
     34 C34       -10.4835    2.6604   61.2807 C.2     1  ZINC000462219577   -0.2600
     35 H35       -11.2062    3.6807   64.1120 H       1  ZINC000462219577    0.0800
     36 H36       -10.4348    2.1696   64.6503 H       1  ZINC000462219577    0.0700
     37 H37        -9.4916    3.3763   63.7435 H       1  ZINC000462219577    0.0800
     38 H38       -13.7024   -0.4337   62.2868 H       1  ZINC000462219577    0.1300
     39 H39       -14.9997   -2.2886   61.3204 H       1  ZINC000462219577    0.1300
     40 H40       -14.5318   -3.0584   59.0301 H       1  ZINC000462219577    0.1300
     41 H41       -12.7662   -1.9762   57.7000 H       1  ZINC000462219577    0.1300
     42 H42       -11.4687   -0.1155   58.6549 H       1  ZINC000462219577    0.1300
     43 H43       -10.1168    1.1657   58.5743 H       1  ZINC000462219577    0.0900
     44 H44       -11.8346    1.6048   58.4181 H       1  ZINC000462219577    0.1100
     45 H45       -12.5207    3.9240   58.1552 H       1  ZINC000462219577    0.0600
     46 H46       -11.9014    4.2313   59.7955 H       1  ZINC000462219577    0.0700
     47 H47       -11.3685    5.2511   58.4375 H       1  ZINC000462219577    0.0700
     48 H48       -10.3797    2.5386   56.4887 H       1  ZINC000462219577    0.3900
     49 H49        -9.4572    3.6230   54.6387 H       1  ZINC000462219577    0.3900
     50 H50        -6.5661    6.0936   53.9870 H       1  ZINC000462219577    0.0800
     51 H51        -6.6176    4.9055   55.3129 H       1  ZINC000462219577    0.0800
     52 H52        -5.9295    3.8621   53.1505 H       1  ZINC000462219577    0.1000
     53 H53        -7.4565    3.1816   53.7624 H       1  ZINC000462219577    0.0500
     54 H54        -7.8540    6.0965   50.2861 H       1  ZINC000462219577    0.1300
     55 H55        -8.8197    6.6936   48.1012 H       1  ZINC000462219577    0.1200
     56 H56       -11.1271    6.0317   47.5527 H       1  ZINC000462219577    0.1200
     57 H57       -12.4685    4.7720   49.1887 H       1  ZINC000462219577    0.1200
     58 H58       -11.5011    4.1708   51.3719 H       1  ZINC000462219577    0.1200
     59 H59       -10.2760    6.0849   53.4300 H       1  ZINC000462219577    0.0800
     60 H60        -8.7428    6.7963   52.8680 H       1  ZINC000462219577    0.0900
     61 H61        -9.8484    3.5019   61.0458 H       1  ZINC000462219577    0.1500
@<TRIPOS>BOND
     1     1     2    1
     2     1    35    1
     3     1    36    1
     4     1    37    1
     5     2    34    1
     6     2     3    2
     7     3     4    1
     8     4     5    1
     9     4    11    1
    10     5    10   ar
    11     5     6   ar
    12     6     7   ar
    13     6    38    1
    14     7     8   ar
    15     7    39    1
    16     8     9   ar
    17     8    40    1
    18     9    10   ar
    19     9    41    1
    20    10    42    1
    21    11    12    1
    22    11    34    2
    23    12    13    1
    24    12    43    1
    25    12    44    1
    26    13    14    1
    27    13    15    1
    28    13    16    1
    29    15    45    1
    30    15    46    1
    31    15    47    1
    32    16    17   am
    33    16    48    1
    34    17    18    2
    35    17    19   am
    36    19    20    1
    37    19    49    1
    38    20    21    1
    39    20    33    1
    40    20    22    1
    41    22    23    1
    42    22    50    1
    43    22    51    1
    44    23    24    1
    45    23    52    1
    46    23    53    1
    47    24    25    1
    48    25    26    1
    49    25    27    1
    50    25    33    1
    51    27    32   ar
    52    27    28   ar
    53    28    29   ar
    54    28    54    1
    55    29    30   ar
    56    29    55    1
    57    30    31   ar
    58    30    56    1
    59    31    32   ar
    60    31    57    1
    61    32    58    1
    62    33    59    1
    63    33    60    1
    64    34    61    1
@<TRIPOS>SUBSTRUCTURE
     1 ZINC000462219577        1 TEMP              0 ****  ****    0 ROOT


##########                                Name:    ZINC000587344575
##########                DOCK_Rotatable_Bonds:                   7
##########                         Heavy_Atoms:                  30
##########                    Molecular_Weight:             408.475
##########                DOCK_Rotatable_Bonds:                   7
##########                       Formal_Charge:          -0.0100002
##########                     HBond_Acceptors:                   7
##########                        HBond_Donors:                   2
##########                         Heavy_Atoms:                  30
##########                          Grid_Score:          -18.796061
##########                     Grid_vdw_energy:          -19.530886
##########                      Grid_es_energy:            0.734826
##########           Internal_energy_repulsive:          135.626083

@<TRIPOS>MOLECULE
ZINC000587344575
 55 57 1 0 0
SMALL
USER_CHARGES


@<TRIPOS>ATOM
      1 C1         -0.9332    4.2886   59.8684 C.3     1  ZINC000587344575   -0.1200
      2 C2         -1.9485    4.0806   58.7744 C.ar    1  ZINC000587344575    0.0000
      3 C3         -3.2892    4.0225   59.0806 C.ar    1  ZINC000587344575   -0.1600
      4 C4         -4.2274    3.8311   58.0710 C.ar    1  ZINC000587344575    0.1800
      5 N5         -5.5849    3.7731   58.3847 N.am    1  ZINC000587344575   -0.6700
      6 C6         -6.4498    4.6217   57.7944 C.2     1  ZINC000587344575    0.5200
      7 O7         -6.0473    5.4357   56.9905 O.2     1  ZINC000587344575   -0.5000
      8 C8         -7.9168    4.5591   58.1334 C.3     1  ZINC000587344575   -0.1200
      9 H9         -8.4840    5.2225   57.4805 H       1  ZINC000587344575    0.1100
     10 C10        -8.1421    4.9422   59.6140 C.3     1  ZINC000587344575   -0.1200
     11 C11        -9.2484    3.9547   60.0630 C.3     1  ZINC000587344575    0.0400
     12 N12        -8.8926    2.6998   59.3524 N.3     1  ZINC000587344575   -0.4800
     13 C13        -9.9912    1.8474   59.2638 C.ar    1  ZINC000587344575    0.0700
     14 C14       -11.1027    2.2234   58.5174 C.ar    1  ZINC000587344575   -0.1200
     15 C15       -12.1908    1.3838   58.4278 C.ar    1  ZINC000587344575   -0.0700
     16 C16       -12.1779    0.1518   59.0874 C.ar    1  ZINC000587344575    0.0000
     17 C17       -13.3078   -0.7232   58.9953 C.1     1  ZINC000587344575    0.2500
     18 N18       -14.2041   -1.4172   58.9224 N.1     1  ZINC000587344575   -0.4000
     19 C19       -11.0591   -0.2250   59.8373 C.ar    1  ZINC000587344575   -0.1000
     20 C20        -9.9716    0.6173   59.9188 C.ar    1  ZINC000587344575    0.1300
     21 F21        -8.8897    0.2548   60.6422 F       1  ZINC000587344575   -0.1200
     22 C22        -8.4336    3.1141   58.0064 C.3     1  ZINC000587344575    0.0500
     23 C23        -3.8143    3.6979   56.7493 C.ar    1  ZINC000587344575   -0.1400
     24 C24        -2.4748    3.7551   56.4361 C.ar    1  ZINC000587344575   -0.0600
     25 C25        -1.5303    3.9525   57.4469 C.ar    1  ZINC000587344575   -0.1600
     26 C26        -0.0935    4.0148   57.1148 C.2     1  ZINC000587344575    0.5600
     27 O27         0.4061    3.1562   56.4139 O.2     1  ZINC000587344575   -0.5300
     28 N28         0.6644    5.0235   57.5884 N.am    1  ZINC000587344575   -0.7200
     29 C29         2.0909    5.0844   57.2601 C.3     1  ZINC000587344575    0.1400
     30 C30         2.6303    3.6660   57.0648 C.3     1  ZINC000587344575   -0.1600
     31 C31         2.2839    5.8855   55.9709 C.3     1  ZINC000587344575   -0.1600
     32 H32        -0.6743    5.3457   59.9278 H       1  ZINC000587344575    0.0800
     33 H33        -1.3530    3.9633   60.8203 H       1  ZINC000587344575    0.0600
     34 H34        -0.0379    3.7070   59.6485 H       1  ZINC000587344575    0.1000
     35 H35        -3.6133    4.1253   60.1057 H       1  ZINC000587344575    0.1300
     36 H36        -5.9067    3.1221   59.0276 H       1  ZINC000587344575    0.4100
     37 H37        -7.2318    4.7914   60.1944 H       1  ZINC000587344575    0.0900
     38 H38        -8.4878    5.9725   59.6976 H       1  ZINC000587344575    0.0900
     39 H39        -9.2178    3.8074   61.1426 H       1  ZINC000587344575    0.0900
     40 H40       -10.2305    4.3090   59.7497 H       1  ZINC000587344575    0.0600
     41 H41       -11.1128    3.1755   58.0075 H       1  ZINC000587344575    0.1400
     42 H42       -13.0535    1.6775   57.8483 H       1  ZINC000587344575    0.1400
     43 H43       -11.0459   -1.1764   60.3482 H       1  ZINC000587344575    0.1500
     44 H44        -9.2649    3.0752   57.3023 H       1  ZINC000587344575    0.0600
     45 H45        -7.6286    2.4601   57.6710 H       1  ZINC000587344575    0.1100
     46 H46        -4.5450    3.5490   55.9681 H       1  ZINC000587344575    0.1400
     47 H47        -2.1546    3.6515   55.4098 H       1  ZINC000587344575    0.1300
     48 H48         0.2656    5.7092   58.1466 H       1  ZINC000587344575    0.4000
     49 H49         2.6306    5.5695   58.0734 H       1  ZINC000587344575    0.0900
     50 H50         2.0907    3.1809   56.2514 H       1  ZINC000587344575    0.0600
     51 H51         3.6916    3.7113   56.8205 H       1  ZINC000587344575    0.0700
     52 H52         2.4929    3.0953   57.9832 H       1  ZINC000587344575    0.0600
     53 H53         1.7442    5.4004   55.1575 H       1  ZINC000587344575    0.0600
     54 H54         1.8996    6.8959   56.1101 H       1  ZINC000587344575    0.0600
     55 H55         3.3451    5.9308   55.7267 H       1  ZINC000587344575    0.0700
@<TRIPOS>BOND
     1     1     2    1
     2     1    32    1
     3     1    33    1
     4     1    34    1
     5     2    25   ar
     6     2     3   ar
     7     3     4   ar
     8     3    35    1
     9     4     5    1
    10     4    23   ar
    11     5     6   am
    12     5    36    1
    13     6     7    2
    14     6     8    1
    15     8     9    1
    16     8    22    1
    17     8    10    1
    18    10    11    1
    19    10    37    1
    20    10    38    1
    21    11    12    1
    22    11    39    1
    23    11    40    1
    24    12    13    1
    25    12    22    1
    26    13    20   ar
    27    13    14   ar
    28    14    15   ar
    29    14    41    1
    30    15    16   ar
    31    15    42    1
    32    16    17    1
    33    16    19   ar
    34    17    18    3
    35    19    20   ar
    36    19    43    1
    37    20    21    1
    38    22    44    1
    39    22    45    1
    40    23    24   ar
    41    23    46    1
    42    24    25   ar
    43    24    47    1
    44    25    26    1
    45    26    27    2
    46    26    28   am
    47    28    29    1
    48    28    48    1
    49    29    30    1
    50    29    31    1
    51    29    49    1
    52    30    50    1
    53    30    51    1
    54    30    52    1
    55    31    53    1
    56    31    54    1
    57    31    55    1
@<TRIPOS>SUBSTRUCTURE
     1 ZINC000587344575        1 TEMP              0 ****  ****    0 ROOT


##########                                Name:    ZINC000438893617
##########                DOCK_Rotatable_Bonds:                   5
##########                         Heavy_Atoms:                  29
##########                    Molecular_Weight:             412.596
##########                DOCK_Rotatable_Bonds:                   5
##########                       Formal_Charge:           0.0600001
##########                     HBond_Acceptors:                   5
##########                        HBond_Donors:                   0
##########                         Heavy_Atoms:                  29
##########                          Grid_Score:          -18.566160
##########                     Grid_vdw_energy:          -17.940378
##########                      Grid_es_energy:           -0.625781
##########           Internal_energy_repulsive:          172.344330

@<TRIPOS>MOLECULE
ZINC000438893617
 61 66 1 0 0
SMALL
USER_CHARGES


@<TRIPOS>ATOM
      1 C1        -10.9157   -0.9254   60.9064 C.3     1  ZINC000438893617   -0.1000
      2 C2        -10.4359   -1.9564   59.9176 C.2     1  ZINC000438893617   -0.0900
      3 C3        -11.2339   -2.4858   58.9890 C.2     1  ZINC000438893617   -0.1600
      4 C4        -12.6886   -2.1428   58.7955 C.3     1  ZINC000438893617   -0.0400
      5 H5        -13.2820   -2.0797   59.7076 H       1  ZINC000438893617    0.1400
      6 C6        -13.3791   -2.6765   57.5389 C.3     1  ZINC000438893617   -0.1400
      7 C7        -13.0433   -1.1876   57.6544 C.3     1  ZINC000438893617   -0.1800
      8 H8        -12.2248   -0.8074   57.0433 H       1  ZINC000438893617    0.1300
      9 C9        -14.1870   -0.2315   57.8766 C.2     1  ZINC000438893617    0.5500
     10 O10       -15.3129   -0.5478   57.5553 O.2     1  ZINC000438893617   -0.5300
     11 N11       -13.9584    0.9749   58.4323 N.am    1  ZINC000438893617   -0.6100
     12 C12       -15.0645    1.9156   58.6591 C.3     1  ZINC000438893617    0.0900
     13 C13       -15.0762    2.3103   60.1411 C.3     1  ZINC000438893617    0.1000
     14 N14       -13.7165    2.7083   60.5318 N.am    1  ZINC000438893617   -0.6100
     15 C15       -13.4880    3.9143   61.0885 C.2     1  ZINC000438893617    0.5300
     16 O16       -14.4090    4.6822   61.2710 O.2     1  ZINC000438893617   -0.5300
     17 C17       -12.0884    4.3086   61.4841 C.3     1  ZINC000438893617   -0.0700
     18 C18       -12.1136    5.6920   62.1373 C.3     1  ZINC000438893617   -0.1100
     19 C19       -10.6926    6.0922   62.5389 C.3     1  ZINC000438893617   -0.0800
     20 C20        -9.8029    6.1317   61.2948 C.3     1  ZINC000438893617   -0.1100
     21 C21        -9.7777    4.7484   60.6417 C.3     1  ZINC000438893617   -0.0800
     22 C22        -9.2211    3.7258   61.6343 C.3     1  ZINC000438893617   -0.1100
     23 C23       -10.1108    3.6863   62.8785 C.3     1  ZINC000438893617   -0.0900
     24 C24       -10.1359    5.0697   63.5317 C.3     1  ZINC000438893617   -0.1100
     25 C25       -11.5318    3.2860   62.4769 C.3     1  ZINC000438893617   -0.0900
     26 C26       -11.1987    4.3481   60.2400 C.3     1  ZINC000438893617   -0.1200
     27 C27       -12.6103    1.7676   60.3051 C.3     1  ZINC000438893617    0.0700
     28 C28       -12.5996    1.3706   58.8282 C.3     1  ZINC000438893617    0.1000
     29 S29       -10.3286   -3.6452   58.0248 S.3     1  ZINC000438893617    0.1000
     30 C30        -8.8743   -3.3365   58.9645 C.2     1  ZINC000438893617   -0.2100
     31 C31        -9.1323   -2.4216   59.9002 C.2     1  ZINC000438893617   -0.1300
     32 H32       -10.7725    0.0717   60.4899 H       1  ZINC000438893617    0.0700
     33 H33       -11.9741   -1.0845   61.1126 H       1  ZINC000438893617    0.0700
     34 H34       -10.3473   -1.0175   61.8319 H       1  ZINC000438893617    0.0700
     35 H35       -12.7814   -3.2756   56.8521 H       1  ZINC000438893617    0.1100
     36 H36       -14.4271   -2.9641   57.6242 H       1  ZINC000438893617    0.1100
     37 H37       -14.9205    2.8045   58.0449 H       1  ZINC000438893617    0.0800
     38 H38       -16.0096    1.4383   58.4002 H       1  ZINC000438893617    0.1000
     39 H39       -15.7595    3.1461   60.2917 H       1  ZINC000438893617    0.1100
     40 H40       -15.3958    1.4601   60.7436 H       1  ZINC000438893617    0.0700
     41 H41       -12.5100    6.4205   61.4300 H       1  ZINC000438893617    0.0800
     42 H42       -12.7474    5.6638   63.0236 H       1  ZINC000438893617    0.0700
     43 H43       -10.7105    7.0778   63.0042 H       1  ZINC000438893617    0.0800
     44 H44       -10.1994    6.8603   60.5876 H       1  ZINC000438893617    0.0600
     45 H45        -8.7905    6.4170   61.5810 H       1  ZINC000438893617    0.0700
     46 H46        -9.1439    4.7766   59.7554 H       1  ZINC000438893617    0.0800
     47 H47        -9.2032    2.7402   61.1691 H       1  ZINC000438893617    0.0600
     48 H48        -8.2088    4.0109   61.9205 H       1  ZINC000438893617    0.0700
     49 H49        -9.7143    2.9577   63.5857 H       1  ZINC000438893617    0.0700
     50 H50        -9.1236    5.3548   63.8178 H       1  ZINC000438893617    0.0700
     51 H51       -10.7697    5.0415   64.4180 H       1  ZINC000438893617    0.0600
     52 H52       -12.1657    3.2579   63.3632 H       1  ZINC000438893617    0.0700
     53 H53       -11.5139    2.3004   62.0115 H       1  ZINC000438893617    0.0700
     54 H54       -11.1808    3.3625   59.7747 H       1  ZINC000438893617    0.0700
     55 H55       -11.5952    5.0766   59.5328 H       1  ZINC000438893617    0.0800
     56 H56       -11.6653    2.2449   60.5639 H       1  ZINC000438893617    0.1300
     57 H57       -12.7544    0.8787   60.9193 H       1  ZINC000438893617    0.0800
     58 H58       -11.9158    0.5350   58.6790 H       1  ZINC000438893617    0.1100
     59 H59       -12.2808    2.2197   58.2235 H       1  ZINC000438893617    0.0700
     60 H60        -7.9177   -3.8117   58.8053 H       1  ZINC000438893617    0.1700
     61 H61        -8.3829   -2.0758   60.5969 H       1  ZINC000438893617    0.1400
@<TRIPOS>BOND
     1     1     2    1
     2     1    32    1
     3     1    33    1
     4     1    34    1
     5     2    31    1
     6     2     3    2
     7     3     4    1
     8     3    29    1
     9     4     5    1
    10     4     7    1
    11     4     6    1
    12     6     7    1
    13     6    35    1
    14     6    36    1
    15     7     8    1
    16     7     9    1
    17     9    10    2
    18     9    11   am
    19    11    28    1
    20    11    12    1
    21    12    13    1
    22    12    37    1
    23    12    38    1
    24    13    14    1
    25    13    39    1
    26    13    40    1
    27    14    15   am
    28    14    27    1
    29    15    16    2
    30    15    17    1
    31    17    25    1
    32    17    26    1
    33    17    18    1
    34    18    19    1
    35    18    41    1
    36    18    42    1
    37    19    24    1
    38    19    20    1
    39    19    43    1
    40    20    21    1
    41    20    44    1
    42    20    45    1
    43    21    22    1
    44    21    26    1
    45    21    46    1
    46    22    23    1
    47    22    47    1
    48    22    48    1
    49    23    24    1
    50    23    25    1
    51    23    49    1
    52    24    50    1
    53    24    51    1
    54    25    52    1
    55    25    53    1
    56    26    54    1
    57    26    55    1
    58    27    28    1
    59    27    56    1
    60    27    57    1
    61    28    58    1
    62    28    59    1
    63    29    30    1
    64    30    31    2
    65    30    60    1
    66    31    61    1
@<TRIPOS>SUBSTRUCTURE
     1 ZINC000438893617        1 TEMP              0 ****  ****    0 ROOT


##########                                Name:    ZINC001076281847
##########                DOCK_Rotatable_Bonds:                   4
##########                         Heavy_Atoms:                  24
##########                    Molecular_Weight:             362.883
##########                DOCK_Rotatable_Bonds:                   4
##########                       Formal_Charge:         -0.00999959
##########                     HBond_Acceptors:                   7
##########                        HBond_Donors:                   0
##########                         Heavy_Atoms:                  24
##########                          Grid_Score:          -18.362114
##########                     Grid_vdw_energy:          -19.408533
##########                      Grid_es_energy:            1.046420
##########           Internal_energy_repulsive:            5.855704

@<TRIPOS>MOLECULE
ZINC001076281847
 43 46 1 0 0
SMALL
USER_CHARGES


@<TRIPOS>ATOM
      1 C1         -8.8531   -2.5443   59.5054 C.3     1  ZINC001076281847   -0.0900
      2 C2        -10.1964   -1.8631   59.4525 C.2     1  ZINC001076281847    0.1400
      3 N3        -11.2473   -2.4663   58.9794 N.2     1  ZINC001076281847   -0.4600
      4 S4        -12.5426   -1.3773   59.0933 S.3     1  ZINC001076281847    0.2500
      5 C5        -11.6292   -0.0976   59.7918 C.2     1  ZINC001076281847   -0.2100
      6 C6        -12.1292    1.2659   60.1945 C.3     1  ZINC001076281847    0.1200
      7 N7        -12.9219    1.1526   61.4261 N.3     1  ZINC001076281847   -0.5000
      8 C8        -13.5786    2.4288   61.7497 C.3     1  ZINC001076281847    0.0300
      9 C9        -13.5008    2.5941   63.2792 C.3     1  ZINC001076281847   -0.1000
     10 H10       -14.4021    2.2660   63.7969 H       1  ZINC001076281847    0.1200
     11 C11       -13.1107    4.0632   63.5896 C.3     1  ZINC001076281847   -0.1300
     12 C12       -11.6094    4.0783   63.2102 C.3     1  ZINC001076281847    0.1000
     13 N13       -11.1005    2.7614   63.6335 N.am    1  ZINC001076281847   -0.6000
     14 C14        -9.8194    2.4773   63.9408 C.2     1  ZINC001076281847    0.5700
     15 O15        -9.5109    1.3517   64.2791 O.2     1  ZINC001076281847   -0.4900
     16 C16        -8.7877    3.5368   63.8662 C.ar    1  ZINC001076281847   -0.0800
     17 C17        -8.1997    3.8828   62.6457 C.ar    1  ZINC001076281847   -0.1800
     18 C18        -7.2415    4.8775   62.6216 C.ar    1  ZINC001076281847    0.1000
     19 N19        -6.8800    5.4971   63.7274 N.ar    1  ZINC001076281847   -0.4500
     20 C20        -7.4077    5.2032   64.8987 C.ar    1  ZINC001076281847    0.1100
     21 C21        -8.3778    4.2242   65.0145 C.ar    1  ZINC001076281847   -0.0500
     22 Cl22       -9.0672    3.8449   66.5621 Cl      1  ZINC001076281847   -0.0100
     23 C23       -12.2307    1.7905   63.6685 C.3     1  ZINC001076281847    0.1000
     24 H24       -12.3249    1.3280   64.6511 H       1  ZINC001076281847    0.1100
     25 C25       -12.0796    0.7409   62.5589 C.3     1  ZINC001076281847    0.0200
     26 C26       -10.3701   -0.5743   59.9083 C.2     1  ZINC001076281847   -0.1800
     27 H27        -8.7154   -3.0002   60.4858 H       1  ZINC001076281847    0.0700
     28 H28        -8.8061   -3.3151   58.7363 H       1  ZINC001076281847    0.0800
     29 H29        -8.0663   -1.8100   59.3324 H       1  ZINC001076281847    0.0900
     30 H30       -11.2805    1.9274   60.3681 H       1  ZINC001076281847    0.1000
     31 H31       -12.7514    1.6744   59.3982 H       1  ZINC001076281847    0.1000
     32 H32       -13.0578    3.2510   61.2589 H       1  ZINC001076281847    0.0600
     33 H33       -14.6204    2.4034   61.4301 H       1  ZINC001076281847    0.0900
     34 H34       -13.6772    4.7568   62.9683 H       1  ZINC001076281847    0.0900
     35 H35       -13.2481    4.2881   64.6473 H       1  ZINC001076281847    0.0800
     36 H36       -11.4915    4.2027   62.1338 H       1  ZINC001076281847    0.0800
     37 H37       -11.0913    4.8749   63.7441 H       1  ZINC001076281847    0.0800
     38 H38        -8.4902    3.3795   61.7352 H       1  ZINC001076281847    0.1800
     39 H39        -6.7817    5.1510   61.6834 H       1  ZINC001076281847    0.1700
     40 H40        -7.0814    5.7368   65.7791 H       1  ZINC001076281847    0.1700
     41 H41       -12.3875   -0.2362   62.9313 H       1  ZINC001076281847    0.1000
     42 H42       -11.0412    0.6992   62.2299 H       1  ZINC001076281847    0.0700
     43 H43        -9.5615    0.0115   60.3200 H       1  ZINC001076281847    0.1400
@<TRIPOS>BOND
     1     1     2    1
     2     1    27    1
     3     1    28    1
     4     1    29    1
     5     2    26    1
     6     2     3    2
     7     3     4    1
     8     4     5    1
     9     5     6    1
    10     5    26    2
    11     6     7    1
    12     6    30    1
    13     6    31    1
    14     7    25    1
    15     7     8    1
    16     8     9    1
    17     8    32    1
    18     8    33    1
    19     9    10    1
    20     9    23    1
    21     9    11    1
    22    11    12    1
    23    11    34    1
    24    11    35    1
    25    12    13    1
    26    12    36    1
    27    12    37    1
    28    13    14   am
    29    13    23    1
    30    14    15    2
    31    14    16    1
    32    16    21   ar
    33    16    17   ar
    34    17    18   ar
    35    17    38    1
    36    18    19   ar
    37    18    39    1
    38    19    20   ar
    39    20    21   ar
    40    20    40    1
    41    21    22    1
    42    23    24    1
    43    23    25    1
    44    25    41    1
    45    25    42    1
    46    26    43    1
@<TRIPOS>SUBSTRUCTURE
     1 ZINC001076281847        1 TEMP              0 ****  ****    0 ROOT


##########                                Name:    ZINC000010935976
##########                DOCK_Rotatable_Bonds:                   3
##########                         Heavy_Atoms:                  26
##########                    Molecular_Weight:             391.558
##########                DOCK_Rotatable_Bonds:                   3
##########                       Formal_Charge:         -0.00999979
##########                     HBond_Acceptors:                   7
##########                        HBond_Donors:                   1
##########                         Heavy_Atoms:                  26
##########                          Grid_Score:          -18.349695
##########                     Grid_vdw_energy:          -17.422705
##########                      Grid_es_energy:           -0.926990
##########           Internal_energy_repulsive:          127.800751

@<TRIPOS>MOLECULE
ZINC000010935976
 51 54 1 0 0
SMALL
USER_CHARGES


@<TRIPOS>ATOM
      1 C1         -9.6529    4.1491   66.0312 C.3     1  ZINC000010935976   -0.0800
      2 C2        -10.1945    3.6462   64.7179 C.2     1  ZINC000010935976   -0.2100
      3 C3         -9.7203    3.9909   63.5366 C.2     1  ZINC000010935976   -0.0400
      4 C4         -8.5635    4.9428   63.3725 C.3     1  ZINC000010935976   -0.1000
      5 C5        -10.3982    3.3826   62.4070 C.2     1  ZINC000010935976   -0.2300
      6 C6        -11.4332    2.5409   62.8084 C.2     1  ZINC000010935976    0.0900
      7 N7        -12.1663    1.8951   61.8799 N.2     1  ZINC000010935976   -0.4900
      8 C8        -11.9309    2.0376   60.5977 C.2     1  ZINC000010935976    0.3400
      9 S9        -12.9285    1.1637   59.4378 S.3     1  ZINC000010935976    0.0500
     10 C10       -13.7835    0.0241   60.5542 C.3     1  ZINC000010935976   -0.1000
     11 H11       -14.1722    0.5739   61.4114 H       1  ZINC000010935976    0.1400
     12 C12       -12.8088   -1.0542   61.0338 C.3     1  ZINC000010935976   -0.1000
     13 C13       -11.8209   -1.4117   59.9382 C.3     1  ZINC000010935976   -0.1300
     14 C14       -12.4544   -2.0986   58.7422 C.3     1  ZINC000010935976   -0.1400
     15 C15       -13.3849   -1.1422   57.9939 C.3     1  ZINC000010935976    0.0700
     16 N16       -14.7166   -1.1954   58.6186 N.am    1  ZINC000010935976   -0.7200
     17 C17       -14.9252   -0.6469   59.8199 C.2     1  ZINC000010935976    0.5400
     18 O18       -16.0282   -0.6928   60.3220 O.2     1  ZINC000010935976   -0.5200
     19 N19       -10.9318    2.8472   60.1402 N.am    1  ZINC000010935976   -0.5100
     20 C20       -10.7021    2.9793   58.6994 C.3     1  ZINC000010935976    0.1200
     21 C21       -11.2105    4.3500   58.2066 C.3     1  ZINC000010935976   -0.1300
     22 C22        -9.9490    5.2486   58.2159 C.3     1  ZINC000010935976   -0.1300
     23 C23        -8.8376    4.2826   57.7357 C.3     1  ZINC000010935976   -0.1100
     24 C24        -9.1934    2.9365   58.4000 C.3     1  ZINC000010935976   -0.1200
     25 C25       -10.1565    3.5262   61.0078 C.2     1  ZINC000010935976    0.5600
     26 O26        -9.2626    4.2504   60.6046 O.2     1  ZINC000010935976   -0.5000
     27 S27       -11.5311    2.5219   64.5646 S.3     1  ZINC000010935976    0.2100
     28 H28       -10.2191    3.7069   66.8509 H       1  ZINC000010935976    0.0700
     29 H29        -8.6033    3.8696   66.1223 H       1  ZINC000010935976    0.0800
     30 H30        -9.7446    5.2345   66.0703 H       1  ZINC000010935976    0.0800
     31 H31        -7.6292    4.3814   63.3657 H       1  ZINC000010935976    0.0700
     32 H32        -8.6690    5.4841   62.4324 H       1  ZINC000010935976    0.0800
     33 H33        -8.5556    5.6512   64.2009 H       1  ZINC000010935976    0.0700
     34 H34       -12.2634   -0.6843   61.9022 H       1  ZINC000010935976    0.0900
     35 H35       -13.3697   -1.9452   61.3161 H       1  ZINC000010935976    0.0900
     36 H36       -11.3340   -0.4981   59.5972 H       1  ZINC000010935976    0.0700
     37 H37       -11.0613   -2.0720   60.3566 H       1  ZINC000010935976    0.0800
     38 H38       -11.6695   -2.4372   58.0660 H       1  ZINC000010935976    0.0800
     39 H39       -13.0269   -2.9602   59.0855 H       1  ZINC000010935976    0.0700
     40 H40       -12.9924   -0.1272   58.0553 H       1  ZINC000010935976    0.1100
     41 H41       -13.4584   -1.4459   56.9495 H       1  ZINC000010935976    0.0900
     42 H42       -15.4495   -1.6295   58.1546 H       1  ZINC000010935976    0.4000
     43 H43       -11.2117    2.1773   58.1653 H       1  ZINC000010935976    0.1000
     44 H44       -11.6125    4.2672   57.1969 H       1  ZINC000010935976    0.0800
     45 H45       -11.9648    4.7443   58.8874 H       1  ZINC000010935976    0.0700
     46 H46       -10.0631    6.0816   57.5221 H       1  ZINC000010935976    0.0600
     47 H47        -9.7389    5.6091   59.2228 H       1  ZINC000010935976    0.1100
     48 H48        -8.8564    4.1889   56.6499 H       1  ZINC000010935976    0.0600
     49 H49        -7.8603    4.6278   58.0729 H       1  ZINC000010935976    0.0700
     50 H50        -8.6321    2.8175   59.3267 H       1  ZINC000010935976    0.0800
     51 H51        -8.9710    2.1142   57.7199 H       1  ZINC000010935976    0.0700
@<TRIPOS>BOND
     1     1     2    1
     2     1    28    1
     3     1    29    1
     4     1    30    1
     5     2    27    1
     6     2     3    2
     7     3     4    1
     8     3     5    1
     9     4    31    1
    10     4    32    1
    11     4    33    1
    12     5    25    1
    13     5     6    2
    14     6     7    1
    15     6    27    1
    16     7     8    2
    17     8     9    1
    18     8    19    1
    19     9    10    1
    20    10    11    1
    21    10    17    1
    22    10    12    1
    23    12    13    1
    24    12    34    1
    25    12    35    1
    26    13    14    1
    27    13    36    1
    28    13    37    1
    29    14    15    1
    30    14    38    1
    31    14    39    1
    32    15    16    1
    33    15    40    1
    34    15    41    1
    35    16    17   am
    36    16    42    1
    37    17    18    2
    38    19    20    1
    39    19    25   am
    40    20    24    1
    41    20    21    1
    42    20    43    1
    43    21    22    1
    44    21    44    1
    45    21    45    1
    46    22    23    1
    47    22    46    1
    48    22    47    1
    49    23    24    1
    50    23    48    1
    51    23    49    1
    52    24    50    1
    53    24    51    1
    54    25    26    2
@<TRIPOS>SUBSTRUCTURE
     1 ZINC000010935976        1 TEMP              0 ****  ****    0 ROOT


##########                                Name:    ZINC000187810810
##########                DOCK_Rotatable_Bonds:                   7
##########                         Heavy_Atoms:                  27
##########                    Molecular_Weight:             386.414
##########                DOCK_Rotatable_Bonds:                   7
##########                       Formal_Charge:           0.0599998
##########                     HBond_Acceptors:                   8
##########                        HBond_Donors:                   1
##########                         Heavy_Atoms:                  27
##########                          Grid_Score:          -18.274870
##########                     Grid_vdw_energy:          -16.557806
##########                      Grid_es_energy:           -1.717064
##########           Internal_energy_repulsive:          119.981628

@<TRIPOS>MOLECULE
ZINC000187810810
 52 53 1 0 0
SMALL
USER_CHARGES


@<TRIPOS>ATOM
      1 C1        -10.3051   -3.2764   60.4416 C.3     1  ZINC000187810810   -0.1800
      2 C2         -9.8832   -2.8404   59.0370 C.3     1  ZINC000187810810    0.1400
      3 C3         -8.3980   -3.1456   58.8328 C.3     1  ZINC000187810810   -0.1800
      4 C4        -10.7080   -3.6020   57.9975 C.3     1  ZINC000187810810   -0.1400
      5 O5        -10.1097   -1.4144   58.8844 O.3     1  ZINC000187810810   -0.3600
      6 C6        -11.2213   -0.9080   59.4506 C.2     1  ZINC000187810810    0.6500
      7 O7        -12.2438   -1.5640   59.4745 O.2     1  ZINC000187810810   -0.5600
      8 N8        -11.2000    0.3266   59.9907 N.am    1  ZINC000187810810   -0.6000
      9 C9        -12.4029    0.8896   60.6192 C.3     1  ZINC000187810810    0.1100
     10 C10       -12.6964    2.2541   59.9876 C.3     1  ZINC000187810810   -0.1400
     11 C11       -11.4546    3.1415   60.0999 C.3     1  ZINC000187810810    0.1800
     12 C12       -11.7552    4.5169   59.5010 C.3     1  ZINC000187810810   -0.1600
     13 N13       -11.0887    3.2927   61.5104 N.am    1  ZINC000187810810   -0.7100
     14 C14       -11.9954    3.7504   62.3964 C.2     1  ZINC000187810810    0.5500
     15 O15       -13.1161    4.0392   62.0249 O.2     1  ZINC000187810810   -0.5100
     16 C16       -11.6267    3.9014   63.8202 C.ar    1  ZINC000187810810   -0.0900
     17 C17       -12.2959    4.8260   64.6233 C.ar    1  ZINC000187810810   -0.0900
     18 C18       -11.9472    4.9616   65.9513 C.ar    1  ZINC000187810810   -0.0900
     19 C19       -10.9363    4.1838   66.4871 C.ar    1  ZINC000187810810   -0.0900
     20 C20       -10.2685    3.2655   65.6962 C.ar    1  ZINC000187810810   -0.0800
     21 C21       -10.6114    3.1156   64.3685 C.ar    1  ZINC000187810810   -0.1300
     22 C22        -9.8834    2.1148   63.5087 C.3     1  ZINC000187810810    0.5200
     23 F23        -9.0817    2.7911   62.5829 F       1  ZINC000187810810   -0.1800
     24 F24        -9.0795    1.3033   64.3166 F       1  ZINC000187810810   -0.1600
     25 F25       -10.8128    1.3207   62.8285 F       1  ZINC000187810810   -0.1600
     26 C26       -10.2940    2.4965   59.3387 C.3     1  ZINC000187810810   -0.1500
     27 C27        -9.9717    1.1326   59.9679 C.3     1  ZINC000187810810    0.1300
     28 H28        -9.7175   -2.7339   61.1822 H       1  ZINC000187810810    0.0900
     29 H29       -11.3632   -3.0590   60.5870 H       1  ZINC000187810810    0.0600
     30 H30       -10.1351   -4.3469   60.5562 H       1  ZINC000187810810    0.0700
     31 H31        -8.2279   -4.2162   58.9473 H       1  ZINC000187810810    0.0700
     32 H32        -8.0974   -2.8352   57.8321 H       1  ZINC000187810810    0.0600
     33 H33        -7.8103   -2.6031   59.5734 H       1  ZINC000187810810    0.0900
     34 H34       -11.7662   -3.3845   58.1429 H       1  ZINC000187810810    0.0700
     35 H35       -10.4075   -3.2915   56.9968 H       1  ZINC000187810810    0.0700
     36 H36       -10.5380   -4.6726   58.1120 H       1  ZINC000187810810    0.0800
     37 H37       -13.2480    0.2213   60.4545 H       1  ZINC000187810810    0.1000
     38 H38       -12.2333    1.0110   61.6891 H       1  ZINC000187810810    0.0700
     39 H39       -12.9545    2.1207   58.9371 H       1  ZINC000187810810    0.0900
     40 H40       -13.5287    2.7253   60.5102 H       1  ZINC000187810810    0.0900
     41 H41       -12.5809    4.9769   60.0438 H       1  ZINC000187810810    0.0600
     42 H42       -10.8708    5.1492   59.5809 H       1  ZINC000187810810    0.0800
     43 H43       -12.0279    4.4046   58.4517 H       1  ZINC000187810810    0.0700
     44 H44       -10.1940    3.0633   61.8066 H       1  ZINC000187810810    0.4000
     45 H45       -13.0848    5.4342   64.2060 H       1  ZINC000187810810    0.1400
     46 H46       -12.4643    5.6767   66.5739 H       1  ZINC000187810810    0.1400
     47 H47       -10.6670    4.2941   67.5271 H       1  ZINC000187810810    0.1400
     48 H48        -9.4800    2.6616   66.1204 H       1  ZINC000187810810    0.1500
     49 H49       -10.5748    2.3609   58.2942 H       1  ZINC000187810810    0.0800
     50 H50        -9.4166    3.1403   59.3995 H       1  ZINC000187810810    0.1000
     51 H51        -9.6038    1.2766   60.9838 H       1  ZINC000187810810    0.0700
     52 H52        -9.2140    0.6249   59.3712 H       1  ZINC000187810810    0.1000
@<TRIPOS>BOND
     1     1     2    1
     2     1    28    1
     3     1    29    1
     4     1    30    1
     5     2     3    1
     6     2     4    1
     7     2     5    1
     8     3    31    1
     9     3    32    1
    10     3    33    1
    11     4    34    1
    12     4    35    1
    13     4    36    1
    14     5     6    1
    15     6     7    2
    16     6     8   am
    17     8    27    1
    18     8     9    1
    19     9    10    1
    20     9    37    1
    21     9    38    1
    22    10    11    1
    23    10    39    1
    24    10    40    1
    25    11    12    1
    26    11    13    1
    27    11    26    1
    28    12    41    1
    29    12    42    1
    30    12    43    1
    31    13    14   am
    32    13    44    1
    33    14    15    2
    34    14    16    1
    35    16    21   ar
    36    16    17   ar
    37    17    18   ar
    38    17    45    1
    39    18    19   ar
    40    18    46    1
    41    19    20   ar
    42    19    47    1
    43    20    21   ar
    44    20    48    1
    45    21    22    1
    46    22    23    1
    47    22    24    1
    48    22    25    1
    49    26    27    1
    50    26    49    1
    51    26    50    1
    52    27    51    1
    53    27    52    1
@<TRIPOS>SUBSTRUCTURE
     1 ZINC000187810810        1 TEMP              0 ****  ****    0 ROOT


##########                                Name:    ZINC000516003207
##########                DOCK_Rotatable_Bonds:                   5
##########                         Heavy_Atoms:                  24
##########                    Molecular_Weight:             342.462
##########                DOCK_Rotatable_Bonds:                   5
##########                       Formal_Charge:          -0.0200001
##########                     HBond_Acceptors:                   5
##########                        HBond_Donors:                   1
##########                         Heavy_Atoms:                  24
##########                          Grid_Score:          -17.661331
##########                     Grid_vdw_energy:          -16.255325
##########                      Grid_es_energy:           -1.406005
##########           Internal_energy_repulsive:           10.076163

@<TRIPOS>MOLECULE
ZINC000516003207
 46 49 1 0 0
SMALL
USER_CHARGES


@<TRIPOS>ATOM
      1 C1          3.2191    0.9009   49.2874 C.3     1  ZINC000516003207    0.0300
      2 O2          2.9299    0.7952   50.6829 O.3     1  ZINC000516003207   -0.3600
      3 C3          1.8786    1.6560   51.1254 C.3     1  ZINC000516003207    0.0900
      4 H4          1.2877    2.0605   50.3036 H       1  ZINC000516003207    0.0800
      5 C5          1.0289    1.0596   52.2622 C.3     1  ZINC000516003207   -0.1700
      6 C6          2.0212    1.7072   53.2452 C.3     1  ZINC000516003207    0.1500
      7 H7          2.8632    1.0651   53.5035 H       1  ZINC000516003207    0.1200
      8 N8          1.3802    2.3059   54.4187 N.am    1  ZINC000516003207   -0.7200
      9 C9          2.0315    2.3399   55.5982 C.2     1  ZINC000516003207    0.5600
     10 O10         3.1510    1.8752   55.6880 O.2     1  ZINC000516003207   -0.5300
     11 C11         1.3839    2.9426   56.7831 C.ar    1  ZINC000516003207   -0.1400
     12 C12         2.0569    2.9787   58.0058 C.ar    1  ZINC000516003207   -0.0800
     13 C13         1.4525    3.5409   59.1126 C.ar    1  ZINC000516003207   -0.1200
     14 C14         0.1807    4.0708   59.0175 C.ar    1  ZINC000516003207   -0.0800
     15 C15        -0.5020    4.0412   57.8015 C.ar    1  ZINC000516003207   -0.0300
     16 C16        -1.8681    4.6111   57.7024 C.2     1  ZINC000516003207    0.1100
     17 C17        -2.5049    5.1763   58.7477 C.2     1  ZINC000516003207   -0.2600
     18 S18        -4.0867    5.7154   58.1902 S.3     1  ZINC000516003207    0.1400
     19 C19        -3.7452    5.1354   56.6192 C.2     1  ZINC000516003207    0.0600
     20 C20        -4.6872    5.2258   55.4463 C.3     1  ZINC000516003207   -0.0800
     21 N21        -2.5679    4.6146   56.5770 N.2     1  ZINC000516003207   -0.4700
     22 C22         0.1024    3.4813   56.6808 C.ar    1  ZINC000516003207   -0.0300
     23 C23         2.3335    2.7129   52.1324 C.3     1  ZINC000516003207   -0.1100
     24 C24         3.7101    3.3698   52.0238 C.3     1  ZINC000516003207   -0.1200
     25 C25         2.9891    4.5756   51.3943 C.3     1  ZINC000516003207   -0.1400
     26 C26         1.7232    4.1149   52.1395 C.3     1  ZINC000516003207   -0.1200
     27 H27         3.5205    1.9223   49.0552 H       1  ZINC000516003207    0.0400
     28 H28         4.0277    0.2163   49.0311 H       1  ZINC000516003207    0.0900
     29 H29         2.3298    0.6446   48.7116 H       1  ZINC000516003207    0.0400
     30 H30         0.0234    1.4763   52.3199 H       1  ZINC000516003207    0.0900
     31 H31         1.0381   -0.0300   52.2880 H       1  ZINC000516003207    0.0800
     32 H32         0.4873    2.6779   54.3467 H       1  ZINC000516003207    0.4000
     33 H33         3.0517    2.5660   58.0862 H       1  ZINC000516003207    0.1300
     34 H34         1.9764    3.5662   60.0567 H       1  ZINC000516003207    0.1400
     35 H35        -0.2868    4.5088   59.8871 H       1  ZINC000516003207    0.1300
     36 H36        -2.1145    5.2798   59.7494 H       1  ZINC000516003207    0.1800
     37 H37        -5.6100    5.7147   55.7584 H       1  ZINC000516003207    0.0800
     38 H38        -4.2206    5.8051   54.6495 H       1  ZINC000516003207    0.0900
     39 H39        -4.9120    4.2232   55.0827 H       1  ZINC000516003207    0.0900
     40 H40        -0.4225    3.4562   55.7373 H       1  ZINC000516003207    0.1500
     41 H41         4.1677    3.5885   52.9886 H       1  ZINC000516003207    0.0800
     42 H42         4.3862    2.8580   51.3390 H       1  ZINC000516003207    0.0800
     43 H43         3.3699    5.5381   51.7356 H       1  ZINC000516003207    0.0700
     44 H44         2.9029    4.5144   50.3094 H       1  ZINC000516003207    0.0800
     45 H45         0.8120    4.1982   51.5471 H       1  ZINC000516003207    0.0700
     46 H46         1.6223    4.5430   53.1368 H       1  ZINC000516003207    0.0900
@<TRIPOS>BOND
     1     1     2    1
     2     1    27    1
     3     1    28    1
     4     1    29    1
     5     2     3    1
     6     3     4    1
     7     3    23    1
     8     3     5    1
     9     5     6    1
    10     5    30    1
    11     5    31    1
    12     6     7    1
    13     6     8    1
    14     6    23    1
    15     8     9   am
    16     8    32    1
    17     9    10    2
    18     9    11    1
    19    11    22   ar
    20    11    12   ar
    21    12    13   ar
    22    12    33    1
    23    13    14   ar
    24    13    34    1
    25    14    15   ar
    26    14    35    1
    27    15    16    1
    28    15    22   ar
    29    16    21    1
    30    16    17    2
    31    17    18    1
    32    17    36    1
    33    18    19    1
    34    19    20    1
    35    19    21    2
    36    20    37    1
    37    20    38    1
    38    20    39    1
    39    22    40    1
    40    23    26    1
    41    23    24    1
    42    24    25    1
    43    24    41    1
    44    24    42    1
    45    25    26    1
    46    25    43    1
    47    25    44    1
    48    26    45    1
    49    26    46    1
@<TRIPOS>SUBSTRUCTURE
     1 ZINC000516003207        1 TEMP              0 ****  ****    0 ROOT


##########                                Name:    ZINC001060620810
##########                DOCK_Rotatable_Bonds:                   5
##########                         Heavy_Atoms:                  24
##########                    Molecular_Weight:             332.421
##########                DOCK_Rotatable_Bonds:                   5
##########                       Formal_Charge:           0.0299998
##########                     HBond_Acceptors:                   6
##########                        HBond_Donors:                   2
##########                         Heavy_Atoms:                  24
##########                          Grid_Score:          -17.629585
##########                     Grid_vdw_energy:          -16.219233
##########                      Grid_es_energy:           -1.410352
##########           Internal_energy_repulsive:           10.252820

@<TRIPOS>MOLECULE
ZINC001060620810
 49 52 1 0 0
SMALL
USER_CHARGES


@<TRIPOS>ATOM
      1 O1        -13.8967   -1.4986   61.0811 O.2     1  ZINC001060620810   -0.5400
      2 C2        -14.2723   -1.1219   59.9911 C.2     1  ZINC001060620810    0.5500
      3 N3        -14.1941    0.1837   59.6655 N.am    1  ZINC001060620810   -0.7200
      4 C4        -13.6535    1.1474   60.6274 C.3     1  ZINC001060620810    0.1400
      5 C5        -12.1413    1.2709   60.4305 C.3     1  ZINC001060620810   -0.1300
      6 C6        -11.5767    2.2775   61.4350 C.3     1  ZINC001060620810   -0.1300
      7 C7        -12.2331    3.6417   61.2137 C.3     1  ZINC001060620810    0.1600
      8 N8        -11.9540    4.1026   59.8515 N.pl3   1  ZINC001060620810   -0.6900
      9 C9        -10.8248    4.8632   59.5951 C.ar    1  ZINC001060620810    0.5600
     10 N10       -10.5852    5.2665   58.3564 N.ar    1  ZINC001060620810   -0.5400
     11 C11        -9.5188    5.9981   58.0773 C.ar    1  ZINC001060620810    0.1700
     12 C12        -8.6418    6.3328   59.0994 C.ar    1  ZINC001060620810   -0.0700
     13 F13        -7.5406    7.0746   58.8493 F       1  ZINC001060620810   -0.1300
     14 C14        -8.9214    5.8889   60.3842 C.ar    1  ZINC001060620810    0.1800
     15 N15       -10.0086    5.1647   60.5938 N.ar    1  ZINC001060620810   -0.5500
     16 C16       -13.7453    3.5182   61.4106 C.3     1  ZINC001060620810   -0.1200
     17 C17       -14.3098    2.5117   60.4060 C.3     1  ZINC001060620810   -0.1300
     18 C18       -14.8267   -2.1135   59.0010 C.3     1  ZINC001060620810   -0.1500
     19 C19       -14.8822   -3.5617   59.4694 C.3     1  ZINC001060620810   -0.1500
     20 C20       -13.8390   -3.1349   58.4591 C.3     1  ZINC001060620810   -0.1100
     21 H21       -12.8145   -3.0827   58.8270 H       1  ZINC001060620810    0.1100
     22 C22       -13.9751   -3.6691   57.0367 C.3     1  ZINC001060620810   -0.0900
     23 C23       -14.8394   -2.7314   56.1936 C.3     1  ZINC001060620810   -0.1200
     24 C24       -16.1692   -2.5057   56.9219 C.3     1  ZINC001060620810   -0.1200
     25 C25       -15.9248   -1.5661   58.1027 C.3     1  ZINC001060620810   -0.0800
     26 H26       -14.4956    0.4851   58.7943 H       1  ZINC001060620810    0.4000
     27 H27       -13.8612    0.8045   61.6410 H       1  ZINC001060620810    0.0900
     28 H28       -11.6737    0.2991   60.5882 H       1  ZINC001060620810    0.0700
     29 H29       -11.9337    1.6138   59.4169 H       1  ZINC001060620810    0.0600
     30 H30       -10.4994    2.3655   61.2948 H       1  ZINC001060620810    0.0700
     31 H31       -11.7844    1.9345   62.4487 H       1  ZINC001060620810    0.0800
     32 H32       -11.8309    4.3588   61.9294 H       1  ZINC001060620810    0.1000
     33 H33       -12.5598    3.8752   59.1289 H       1  ZINC001060620810    0.4100
     34 H34        -9.3309    6.3270   57.0659 H       1  ZINC001060620810    0.1800
     35 H35        -8.2597    6.1311   61.2025 H       1  ZINC001060620810    0.1800
     36 H36       -14.2128    4.4901   61.2530 H       1  ZINC001060620810    0.0800
     37 H37       -13.9529    3.1752   62.4242 H       1  ZINC001060620810    0.0900
     38 H38       -14.1022    2.8545   59.3925 H       1  ZINC001060620810    0.0700
     39 H39       -15.3872    2.4236   60.5463 H       1  ZINC001060620810    0.0800
     40 H40       -14.5357   -3.7781   60.4799 H       1  ZINC001060620810    0.1000
     41 H41       -15.7102   -4.1749   59.1137 H       1  ZINC001060620810    0.1100
     42 H42       -14.4464   -4.6509   57.0828 H       1  ZINC001060620810    0.0700
     43 H43       -12.9903   -3.7622   56.5788 H       1  ZINC001060620810    0.0700
     44 H44       -15.0276   -3.1837   55.2198 H       1  ZINC001060620810    0.0700
     45 H45       -14.3266   -1.7783   56.0643 H       1  ZINC001060620810    0.0700
     46 H46       -16.5534   -3.4587   57.2860 H       1  ZINC001060620810    0.0700
     47 H47       -16.8889   -2.0551   56.2385 H       1  ZINC001060620810    0.0700
     48 H48       -16.8446   -1.4661   58.6792 H       1  ZINC001060620810    0.0700
     49 H49       -15.6277   -0.5870   57.7271 H       1  ZINC001060620810    0.0700
@<TRIPOS>BOND
     1     1     2    2
     2     2     3   am
     3     2    18    1
     4     3     4    1
     5     3    26    1
     6     4    17    1
     7     4     5    1
     8     4    27    1
     9     5     6    1
    10     5    28    1
    11     5    29    1
    12     6     7    1
    13     6    30    1
    14     6    31    1
    15     7     8    1
    16     7    16    1
    17     7    32    1
    18     8     9    1
    19     8    33    1
    20     9    15   ar
    21     9    10   ar
    22    10    11   ar
    23    11    12   ar
    24    11    34    1
    25    12    13    1
    26    12    14   ar
    27    14    15   ar
    28    14    35    1
    29    16    17    1
    30    16    36    1
    31    16    37    1
    32    17    38    1
    33    17    39    1
    34    18    20    1
    35    18    25    1
    36    18    19    1
    37    19    20    1
    38    19    40    1
    39    19    41    1
    40    20    21    1
    41    20    22    1
    42    22    23    1
    43    22    42    1
    44    22    43    1
    45    23    24    1
    46    23    44    1
    47    23    45    1
    48    24    25    1
    49    24    46    1
    50    24    47    1
    51    25    48    1
    52    25    49    1
@<TRIPOS>SUBSTRUCTURE
     1 ZINC001060620810        1 TEMP              0 ****  ****    0 ROOT


##########                                Name:    ZINC001570985666
##########                DOCK_Rotatable_Bonds:                   7
##########                         Heavy_Atoms:                  26
##########                    Molecular_Weight:             357.415
##########                DOCK_Rotatable_Bonds:                   7
##########                       Formal_Charge:          -0.0100001
##########                     HBond_Acceptors:                   9
##########                        HBond_Donors:                   3
##########                         Heavy_Atoms:                  26
##########                          Grid_Score:          -17.469105
##########                     Grid_vdw_energy:          -18.765903
##########                      Grid_es_energy:            1.296798
##########           Internal_energy_repulsive:           36.152340

@<TRIPOS>MOLECULE
ZINC001570985666
 49 52 1 0 0
SMALL
USER_CHARGES


@<TRIPOS>ATOM
      1 C1        -15.7670    0.0055   60.6672 C.3     1  ZINC001570985666   -0.1600
      2 C2        -14.5436    0.7897   60.1882 C.3     1  ZINC001570985666    0.1300
      3 H3        -14.5053    0.7876   59.0990 H       1  ZINC001570985666    0.0800
      4 C4        -13.2576    0.1565   60.7600 C.3     1  ZINC001570985666    0.1400
      5 H5        -13.4767   -0.4130   61.6632 H       1  ZINC001570985666    0.1100
      6 N6        -12.6089   -0.6933   59.7583 N.am    1  ZINC001570985666   -0.7200
      7 C7        -11.3298   -1.0815   59.9306 C.2     1  ZINC001570985666    0.6000
      8 O8        -10.7146   -0.7278   60.9182 O.2     1  ZINC001570985666   -0.5300
      9 C9        -10.6769   -1.9346   58.9225 C.2     1  ZINC001570985666   -0.2300
     10 C10       -11.2680   -2.4825   57.8045 C.2     1  ZINC001570985666    0.0700
     11 N11       -10.3362   -3.1952   57.1407 N.pl3   1  ZINC001570985666   -0.5200
     12 C12        -9.1421   -3.1181   57.8142 C.2     1  ZINC001570985666    0.0600
     13 C13        -7.8755   -3.7658   57.4059 C.2     1  ZINC001570985666    0.2500
     14 N14        -7.7268   -4.6918   56.4775 N.2     1  ZINC001570985666   -0.3100
     15 N15        -6.4758   -4.9963   56.4217 N.pl3   1  ZINC001570985666   -0.2200
     16 N16        -5.8270   -4.2940   57.2835 N.2     1  ZINC001570985666   -0.0400
     17 N17        -6.6534   -3.5219   57.9034 N.2     1  ZINC001570985666   -0.2600
     18 C18        -9.3181   -2.3435   58.9144 C.2     1  ZINC001570985666   -0.0600
     19 C19       -12.3788    1.3920   61.0895 C.3     1  ZINC001570985666   -0.1500
     20 C20       -13.4437    2.4155   61.5565 C.3     1  ZINC001570985666    0.1000
     21 N21       -14.6107    2.1723   60.6836 N.am    1  ZINC001570985666   -0.6200
     22 C22       -15.5746    3.0685   60.3931 C.2     1  ZINC001570985666    0.5300
     23 O23       -16.4909    2.7577   59.6620 O.2     1  ZINC001570985666   -0.5300
     24 C24       -15.5137    4.4564   60.9769 C.3     1  ZINC001570985666   -0.1300
     25 C25       -14.6022    5.3326   60.1152 C.3     1  ZINC001570985666   -0.1000
     26 C26       -13.5521    4.5364   59.3226 C.3     1  ZINC001570985666   -0.1300
     27 C27       -13.8244    5.4947   58.1511 C.3     1  ZINC001570985666   -0.1400
     28 C28       -15.2189    5.7171   58.7600 C.3     1  ZINC001570985666   -0.1400
     29 H29       -16.6714    0.4615   60.2643 H       1  ZINC001570985666    0.0700
     30 H30       -15.6954   -1.0259   60.3220 H       1  ZINC001570985666    0.0700
     31 H31       -15.8058    0.0223   61.7563 H       1  ZINC001570985666    0.0600
     32 H32       -13.0999   -0.9765   58.9712 H       1  ZINC001570985666    0.4000
     33 H33       -12.3004   -2.3621   57.5111 H       1  ZINC001570985666    0.1800
     34 H34       -10.4858   -3.6854   56.3172 H       1  ZINC001570985666    0.4300
     35 H35        -6.0843   -5.6522   55.8238 H       1  ZINC001570985666    0.4800
     36 H36        -8.5673   -2.0914   59.6487 H       1  ZINC001570985666    0.1600
     37 H37       -11.6745    1.1678   61.8906 H       1  ZINC001570985666    0.0900
     38 H38       -11.8572    1.7486   60.2012 H       1  ZINC001570985666    0.0800
     39 H39       -13.7060    2.2407   62.5999 H       1  ZINC001570985666    0.0800
     40 H40       -13.0766    3.4329   61.4220 H       1  ZINC001570985666    0.0800
     41 H41       -16.5153    4.8857   60.9989 H       1  ZINC001570985666    0.0900
     42 H42       -15.1171    4.4069   61.9910 H       1  ZINC001570985666    0.0900
     43 H43       -14.1883    6.1795   60.6626 H       1  ZINC001570985666    0.1000
     44 H44       -12.5438    4.6186   59.7287 H       1  ZINC001570985666    0.0700
     45 H45       -13.8458    3.5062   59.1213 H       1  ZINC001570985666    0.0800
     46 H46       -13.1965    6.3857   58.1609 H       1  ZINC001570985666    0.0800
     47 H47       -13.8458    5.0014   57.1794 H       1  ZINC001570985666    0.0700
     48 H48       -15.9683    5.0097   58.4048 H       1  ZINC001570985666    0.0800
     49 H49       -15.5563    6.7525   58.7118 H       1  ZINC001570985666    0.0700
@<TRIPOS>BOND
     1     1     2    1
     2     1    29    1
     3     1    30    1
     4     1    31    1
     5     2     3    1
     6     2    21    1
     7     2     4    1
     8     4     5    1
     9     4     6    1
    10     4    19    1
    11     6     7   am
    12     6    32    1
    13     7     8    2
    14     7     9    1
    15     9    18    1
    16     9    10    2
    17    10    11    1
    18    10    33    1
    19    11    12    1
    20    11    34    1
    21    12    13    1
    22    12    18    2
    23    13    17    1
    24    13    14    2
    25    14    15    1
    26    15    16    1
    27    15    35    1
    28    16    17    2
    29    18    36    1
    30    19    20    1
    31    19    37    1
    32    19    38    1
    33    20    21    1
    34    20    39    1
    35    20    40    1
    36    21    22   am
    37    22    23    2
    38    22    24    1
    39    24    25    1
    40    24    41    1
    41    24    42    1
    42    25    28    1
    43    25    26    1
    44    25    43    1
    45    26    27    1
    46    26    44    1
    47    26    45    1
    48    27    28    1
    49    27    46    1
    50    27    47    1
    51    28    48    1
    52    28    49    1
@<TRIPOS>SUBSTRUCTURE
     1 ZINC001570985666        1 TEMP              0 ****  ****    0 ROOT


##########                                Name:    ZINC000482962466
##########                DOCK_Rotatable_Bonds:                   2
##########                         Heavy_Atoms:                  25
##########                    Molecular_Weight:             404.303
##########                DOCK_Rotatable_Bonds:                   2
##########                       Formal_Charge:           0.0200002
##########                     HBond_Acceptors:                   4
##########                        HBond_Donors:                   0
##########                         Heavy_Atoms:                  25
##########                          Grid_Score:          -17.225250
##########                     Grid_vdw_energy:          -16.652489
##########                      Grid_es_energy:           -0.572762
##########           Internal_energy_repulsive:            6.062650

@<TRIPOS>MOLECULE
ZINC000482962466
 47 50 1 0 0
SMALL
USER_CHARGES


@<TRIPOS>ATOM
      1 C1          3.2444    4.6366   49.7186 C.3     1  ZINC000482962466   -0.1400
      2 C2          2.7790    4.1943   51.1074 C.3     1  ZINC000482962466    0.0700
      3 H3          1.6900    4.2105   51.1487 H       1  ZINC000482962466    0.0700
      4 C4          3.3459    5.1478   52.1653 C.3     1  ZINC000482962466    0.0800
      5 N5          3.0428    4.5989   53.4965 N.am    1  ZINC000482962466   -0.6100
      6 C6          2.4655    5.3610   54.4464 C.2     1  ZINC000482962466    0.5600
      7 O7          2.1874    6.5205   54.2095 O.2     1  ZINC000482962466   -0.5200
      8 C8          2.1708    4.7873   55.7758 C.ar    1  ZINC000482962466   -0.1100
      9 C9          3.1217    4.8905   56.8067 C.ar    1  ZINC000482962466   -0.0700
     10 C10         2.8742    4.3716   58.0363 C.ar    1  ZINC000482962466   -0.1000
     11 C11         1.6538    3.7204   58.2930 C.ar    1  ZINC000482962466   -0.0400
     12 C12         1.3753    3.1758   59.5573 C.ar    1  ZINC000482962466   -0.0700
     13 C13         0.1846    2.5511   59.7761 C.ar    1  ZINC000482962466   -0.0800
     14 Br14       -0.1844    1.8206   61.4808 Br      1  ZINC000482962466   -0.0400
     15 C15        -0.7666    2.4427   58.7618 C.ar    1  ZINC000482962466   -0.1000
     16 C16        -0.5318    2.9576   57.5246 C.ar    1  ZINC000482962466   -0.0900
     17 C17         0.6864    3.6102   57.2615 C.ar    1  ZINC000482962466   -0.0500
     18 C18         0.9576    4.1570   55.9988 C.ar    1  ZINC000482962466   -0.0700
     19 C19         3.3891    3.1929   53.7598 C.3     1  ZINC000482962466    0.0700
     20 C20         2.8230    2.3352   52.6238 C.3     1  ZINC000482962466    0.0800
     21 C21         3.3301    0.8982   52.7678 C.3     1  ZINC000482962466   -0.1100
     22 C22         2.6949    0.0325   51.6750 C.3     1  ZINC000482962466   -0.1500
     23 C23         1.1707    0.1269   51.7821 C.3     1  ZINC000482962466    0.0600
     24 O24         0.7694    1.4937   51.6693 O.3     1  ZINC000482962466   -0.3700
     25 C25         1.2944    2.3420   52.6926 C.3     1  ZINC000482962466    0.0400
     26 O26         3.2471    2.8686   51.3682 O.3     1  ZINC000482962466   -0.3500
     27 H27         2.8425    3.9570   48.9672 H       1  ZINC000482962466    0.0700
     28 H28         2.8888    5.6479   49.5213 H       1  ZINC000482962466    0.0800
     29 H29         4.3335    4.6201   49.6780 H       1  ZINC000482962466    0.0700
     30 H30         4.4255    5.2340   52.0410 H       1  ZINC000482962466    0.0800
     31 H31         2.8844    6.1297   52.0594 H       1  ZINC000482962466    0.1000
     32 H32         4.0611    5.3887   56.6174 H       1  ZINC000482962466    0.1400
     33 H33         3.6146    4.4584   58.8179 H       1  ZINC000482962466    0.1400
     34 H34         2.1021    3.2515   60.3526 H       1  ZINC000482962466    0.1400
     35 H35        -1.7028    1.9426   58.9614 H       1  ZINC000482962466    0.1400
     36 H36        -1.2770    2.8659   56.7483 H       1  ZINC000482962466    0.1400
     37 H37         0.2282    4.0834   55.2056 H       1  ZINC000482962466    0.1400
     38 H38         4.4730    3.0827   53.7981 H       1  ZINC000482962466    0.0900
     39 H39         2.9540    2.8791   54.7087 H       1  ZINC000482962466    0.1000
     40 H40         4.4148    0.8819   52.6614 H       1  ZINC000482962466    0.0800
     41 H41         3.0527    0.5100   53.7478 H       1  ZINC000482962466    0.0800
     42 H42         3.0141    0.3896   50.6959 H       1  ZINC000482962466    0.0800
     43 H43         3.0056   -1.0042   51.8049 H       1  ZINC000482962466    0.0800
     44 H44         0.7135   -0.4534   50.9807 H       1  ZINC000482962466    0.1000
     45 H45         0.8490   -0.2679   52.7458 H       1  ZINC000482962466    0.0500
     46 H46         0.9729    1.9771   53.6680 H       1  ZINC000482962466    0.0600
     47 H47         0.9285    3.3582   52.5457 H       1  ZINC000482962466    0.1000
@<TRIPOS>BOND
     1     1     2    1
     2     1    27    1
     3     1    28    1
     4     1    29    1
     5     2     3    1
     6     2    26    1
     7     2     4    1
     8     4     5    1
     9     4    30    1
    10     4    31    1
    11     5     6   am
    12     5    19    1
    13     6     7    2
    14     6     8    1
    15     8    18   ar
    16     8     9   ar
    17     9    10   ar
    18     9    32    1
    19    10    11   ar
    20    10    33    1
    21    11    17   ar
    22    11    12   ar
    23    12    13   ar
    24    12    34    1
    25    13    14    1
    26    13    15   ar
    27    15    16   ar
    28    15    35    1
    29    16    17   ar
    30    16    36    1
    31    17    18   ar
    32    18    37    1
    33    19    20    1
    34    19    38    1
    35    19    39    1
    36    20    25    1
    37    20    21    1
    38    20    26    1
    39    21    22    1
    40    21    40    1
    41    21    41    1
    42    22    23    1
    43    22    42    1
    44    22    43    1
    45    23    24    1
    46    23    44    1
    47    23    45    1
    48    24    25    1
    49    25    46    1
    50    25    47    1
@<TRIPOS>SUBSTRUCTURE
     1 ZINC000482962466        1 TEMP              0 ****  ****    0 ROOT


##########                                Name:    ZINC000653668607
##########                DOCK_Rotatable_Bonds:                   5
##########                         Heavy_Atoms:                  28
##########                    Molecular_Weight:             379.459
##########                DOCK_Rotatable_Bonds:                   5
##########                       Formal_Charge:          0.00999918
##########                     HBond_Acceptors:                   6
##########                        HBond_Donors:                   2
##########                         Heavy_Atoms:                  28
##########                          Grid_Score:          -16.843534
##########                     Grid_vdw_energy:          -17.093130
##########                      Grid_es_energy:            0.249595
##########           Internal_energy_repulsive:           11.421062

@<TRIPOS>MOLECULE
ZINC000653668607
 53 56 1 0 0
SMALL
USER_CHARGES


@<TRIPOS>ATOM
      1 C1        -10.1837   -3.1513   59.1157 C.3     1  ZINC000653668607    0.0300
      2 O2         -9.4821   -1.9123   59.2369 O.3     1  ZINC000653668607   -0.3200
      3 C3        -10.1506   -0.8784   59.8120 C.ar    1  ZINC000653668607    0.1300
      4 C4         -9.4742    0.0293   60.6138 C.ar    1  ZINC000653668607   -0.2000
      5 C5        -10.1613    1.0765   61.1903 C.ar    1  ZINC000653668607   -0.0800
      6 C6        -11.5250    1.2315   60.9758 C.ar    1  ZINC000653668607   -0.1000
      7 C7        -12.2069    2.4072   61.6258 C.3     1  ZINC000653668607   -0.0800
      8 C8        -13.7198    2.2006   61.6575 C.3     1  ZINC000653668607   -0.1200
      9 C9        -14.1877    1.8332   60.2444 C.3     1  ZINC000653668607   -0.1100
     10 C10       -13.6790    0.4306   59.9178 C.3     1  ZINC000653668607   -0.0600
     11 H11       -14.2068   -0.2960   60.5355 H       1  ZINC000653668607    0.1000
     12 C12       -13.9430    0.1322   58.4645 C.2     1  ZINC000653668607    0.5200
     13 O13       -14.8557   -0.6031   58.1524 O.2     1  ZINC000653668607   -0.5100
     14 N14       -13.1648    0.6822   57.5114 N.am    1  ZINC000653668607   -0.6700
     15 C15       -13.4098    0.4050   56.1620 C.ar    1  ZINC000653668607    0.1500
     16 C16       -13.3247   -0.8999   55.6937 C.ar    1  ZINC000653668607   -0.1100
     17 C17       -13.5665   -1.1743   54.3611 C.ar    1  ZINC000653668607   -0.0900
     18 C18       -13.8935   -0.1527   53.4907 C.ar    1  ZINC000653668607   -0.1200
     19 C19       -13.9798    1.1547   53.9529 C.ar    1  ZINC000653668607    0.1700
     20 N20       -14.3107    2.1892   53.0704 N.am    1  ZINC000653668607   -0.5800
     21 C21       -13.2416    2.9859   52.4664 C.3     1  ZINC000653668607    0.1100
     22 C22       -13.7059    3.4954   51.0978 C.3     1  ZINC000653668607   -0.1500
     23 C23       -15.0190    4.2632   51.2830 C.3     1  ZINC000653668607    0.1100
     24 N24       -15.9918    3.3971   51.9511 N.am    1  ZINC000653668607   -0.7400
     25 C25       -15.6010    2.4270   52.7910 C.2     1  ZINC000653668607    0.7100
     26 O26       -16.4503    1.7425   53.3280 O.2     1  ZINC000653668607   -0.5800
     27 C27       -13.7438    1.4327   55.2913 C.ar    1  ZINC000653668607   -0.1300
     28 C28       -12.1999    0.3282   60.1845 C.ar    1  ZINC000653668607   -0.0300
     29 C29       -11.5094   -0.7221   59.5962 C.ar    1  ZINC000653668607   -0.1500
     30 H30       -10.4723   -3.5038   60.1060 H       1  ZINC000653668607    0.0600
     31 H31       -11.0765   -3.0054   58.5075 H       1  ZINC000653668607    0.0600
     32 H32        -9.5376   -3.8899   58.6412 H       1  ZINC000653668607    0.1000
     33 H33        -8.4142   -0.0840   60.7862 H       1  ZINC000653668607    0.1300
     34 H34        -9.6344    1.7829   61.8146 H       1  ZINC000653668607    0.1300
     35 H35       -11.8379    2.5181   62.6454 H       1  ZINC000653668607    0.0800
     36 H36       -11.9795    3.3116   61.0614 H       1  ZINC000653668607    0.0800
     37 H37       -13.9657    1.3930   62.3471 H       1  ZINC000653668607    0.0700
     38 H38       -14.2092    3.1200   61.9788 H       1  ZINC000653668607    0.0800
     39 H39       -15.2769    1.8476   60.2030 H       1  ZINC000653668607    0.0700
     40 H40       -13.7832    2.5468   59.5265 H       1  ZINC000653668607    0.0800
     41 H41       -12.4348    1.2702   57.7609 H       1  ZINC000653668607    0.4100
     42 H42       -13.0688   -1.7007   56.3716 H       1  ZINC000653668607    0.1400
     43 H43       -13.4993   -2.1897   53.9993 H       1  ZINC000653668607    0.1300
     44 H44       -14.0820   -0.3704   52.4498 H       1  ZINC000653668607    0.1200
     45 H45       -13.0103    3.8336   53.1114 H       1  ZINC000653668607    0.0700
     46 H46       -12.3523    2.3678   52.3425 H       1  ZINC000653668607    0.0900
     47 H47       -12.9498    4.1590   50.6785 H       1  ZINC000653668607    0.1000
     48 H48       -13.8672    2.6505   50.4282 H       1  ZINC000653668607    0.0800
     49 H49       -14.8403    5.1488   51.8928 H       1  ZINC000653668607    0.0700
     50 H50       -15.4064    4.5626   50.3090 H       1  ZINC000653668607    0.0900
     51 H51       -16.9380    3.5249   51.7802 H       1  ZINC000653668607    0.4200
     52 H52       -13.8106    2.4481   55.6530 H       1  ZINC000653668607    0.1300
     53 H53       -12.0369   -1.4258   58.9693 H       1  ZINC000653668607    0.1200
@<TRIPOS>BOND
     1     1     2    1
     2     1    30    1
     3     1    31    1
     4     1    32    1
     5     2     3    1
     6     3    29   ar
     7     3     4   ar
     8     4     5   ar
     9     4    33    1
    10     5     6   ar
    11     5    34    1
    12     6    28   ar
    13     6     7    1
    14     7     8    1
    15     7    35    1
    16     7    36    1
    17     8     9    1
    18     8    37    1
    19     8    38    1
    20     9    10    1
    21     9    39    1
    22     9    40    1
    23    10    11    1
    24    10    12    1
    25    10    28    1
    26    12    13    2
    27    12    14   am
    28    14    15    1
    29    14    41    1
    30    15    27   ar
    31    15    16   ar
    32    16    17   ar
    33    16    42    1
    34    17    18   ar
    35    17    43    1
    36    18    19   ar
    37    18    44    1
    38    19    20    1
    39    19    27   ar
    40    20    25   am
    41    20    21    1
    42    21    22    1
    43    21    45    1
    44    21    46    1
    45    22    23    1
    46    22    47    1
    47    22    48    1
    48    23    24    1
    49    23    49    1
    50    23    50    1
    51    24    25   am
    52    24    51    1
    53    25    26    2
    54    27    52    1
    55    28    29   ar
    56    29    53    1
@<TRIPOS>SUBSTRUCTURE
     1 ZINC000653668607        1 TEMP              0 ****  ****    0 ROOT


##########                                Name:    ZINC000192150625
##########                DOCK_Rotatable_Bonds:                   5
##########                         Heavy_Atoms:                  28
##########                    Molecular_Weight:             377.443
##########                DOCK_Rotatable_Bonds:                   5
##########                       Formal_Charge:           0.0199997
##########                     HBond_Acceptors:                   6
##########                        HBond_Donors:                   1
##########                         Heavy_Atoms:                  28
##########                          Grid_Score:          -16.009033
##########                     Grid_vdw_energy:          -14.747497
##########                      Grid_es_energy:           -1.261537
##########           Internal_energy_repulsive:           23.097353

@<TRIPOS>MOLECULE
ZINC000192150625
 51 54 1 0 0
SMALL
USER_CHARGES


@<TRIPOS>ATOM
      1 C1        -14.5315   -4.0823   57.1646 C.3     1  ZINC000192150625   -0.0800
      2 C2        -13.8972   -2.9449   57.9230 C.2     1  ZINC000192150625    0.0400
      3 C3        -14.5187   -1.8065   58.2591 C.2     1  ZINC000192150625   -0.1800
      4 C4        -15.9467   -1.4318   57.9572 C.3     1  ZINC000192150625   -0.0800
      5 C5        -13.5288   -0.9975   58.9809 C.ar    1  ZINC000192150625   -0.1000
      6 C6        -13.5500    0.2617   59.5771 C.ar    1  ZINC000192150625   -0.0700
      7 C7        -12.4083    0.7443   60.1934 C.ar    1  ZINC000192150625    0.1200
      8 N8        -12.4202    2.0072   60.7949 N.am    1  ZINC000192150625   -0.6400
      9 C9        -11.9276    3.0732   60.1335 C.2     1  ZINC000192150625    0.5100
     10 O10       -11.4739    2.9375   59.0158 O.2     1  ZINC000192150625   -0.4900
     11 C11       -11.9403    4.4215   60.7756 C.2     1  ZINC000192150625    0.5100
     12 O12       -12.3852    5.3764   60.1730 O.2     1  ZINC000192150625   -0.5200
     13 N13       -11.4577    4.5778   62.0243 N.am    1  ZINC000192150625   -0.5800
     14 C14       -10.9103    3.4325   62.7640 C.3     1  ZINC000192150625    0.0500
     15 C15        -9.4992    3.7850   63.2450 C.3     1  ZINC000192150625   -0.1200
     16 C16        -9.5487    5.0866   64.0484 C.3     1  ZINC000192150625   -0.0500
     17 C17        -8.1676    5.4186   64.5519 C.ar    1  ZINC000192150625   -0.0300
     18 C18        -7.0416    5.0404   63.8369 C.ar    1  ZINC000192150625   -0.1700
     19 C19        -5.7912    5.3624   64.3298 C.ar    1  ZINC000192150625    0.1000
     20 N20        -5.6627    6.0203   65.4654 N.ar    1  ZINC000192150625   -0.4900
     21 C21        -6.7112    6.3958   66.1717 C.ar    1  ZINC000192150625    0.1000
     22 C22        -7.9930    6.1144   65.7384 C.ar    1  ZINC000192150625   -0.1700
     23 C23       -10.0516    6.2216   63.1535 C.3     1  ZINC000192150625   -0.1200
     24 C24       -11.4634    5.8979   62.6693 C.3     1  ZINC000192150625    0.1100
     25 C25       -11.2473   -0.0260   60.2160 C.ar    1  ZINC000192150625   -0.1100
     26 C26       -11.2201   -1.2715   59.6285 C.ar    1  ZINC000192150625   -0.0800
     27 C27       -12.3565   -1.7719   59.0054 C.ar    1  ZINC000192150625    0.0500
     28 O28       -12.6279   -2.9282   58.3652 O.3     1  ZINC000192150625   -0.1900
     29 H29       -13.8027   -4.8821   57.0326 H       1  ZINC000192150625    0.0800
     30 H30       -15.3875   -4.4594   57.7240 H       1  ZINC000192150625    0.0900
     31 H31       -14.8628   -3.7281   56.1884 H       1  ZINC000192150625    0.0900
     32 H32       -16.5901   -1.7668   58.7709 H       1  ZINC000192150625    0.0700
     33 H33       -16.0245   -0.3494   57.8545 H       1  ZINC000192150625    0.0700
     34 H34       -16.2586   -1.9082   57.0277 H       1  ZINC000192150625    0.0700
     35 H35       -14.4508    0.8572   59.5581 H       1  ZINC000192150625    0.1400
     36 H36       -12.7828    2.1157   61.6880 H       1  ZINC000192150625    0.4300
     37 H37       -11.5453    3.2149   63.6229 H       1  ZINC000192150625    0.0700
     38 H38       -10.8665    2.5619   62.1096 H       1  ZINC000192150625    0.1600
     39 H39        -9.1188    2.9819   63.8763 H       1  ZINC000192150625    0.0800
     40 H40        -8.8430    3.9135   62.3841 H       1  ZINC000192150625    0.0700
     41 H41       -10.2244    4.9653   64.8950 H       1  ZINC000192150625    0.0900
     42 H42        -7.1403    4.5008   62.9065 H       1  ZINC000192150625    0.1300
     43 H43        -4.9091    5.0714   63.7788 H       1  ZINC000192150625    0.1600
     44 H44        -6.5665    6.9329   67.0973 H       1  ZINC000192150625    0.1600
     45 H45        -8.8477    6.4249   66.3210 H       1  ZINC000192150625    0.1300
     46 H46       -10.0645    7.1530   63.7198 H       1  ZINC000192150625    0.0800
     47 H47        -9.3902    6.3272   62.2936 H       1  ZINC000192150625    0.0700
     48 H48       -11.7868    6.6541   61.9539 H       1  ZINC000192150625    0.1000
     49 H49       -12.1460    5.8800   63.5188 H       1  ZINC000192150625    0.0800
     50 H50       -10.3602    0.3574   60.6984 H       1  ZINC000192150625    0.1400
     51 H51       -10.3146   -1.8596   59.6521 H       1  ZINC000192150625    0.1400
@<TRIPOS>BOND
     1     1     2    1
     2     1    29    1
     3     1    30    1
     4     1    31    1
     5     2    28    1
     6     2     3    2
     7     3     4    1
     8     3     5    1
     9     4    32    1
    10     4    33    1
    11     4    34    1
    12     5    27   ar
    13     5     6   ar
    14     6     7   ar
    15     6    35    1
    16     7     8    1
    17     7    25   ar
    18     8     9   am
    19     8    36    1
    20     9    10    2
    21     9    11    1
    22    11    12    2
    23    11    13   am
    24    13    24    1
    25    13    14    1
    26    14    15    1
    27    14    37    1
    28    14    38    1
    29    15    16    1
    30    15    39    1
    31    15    40    1
    32    16    17    1
    33    16    23    1
    34    16    41    1
    35    17    22   ar
    36    17    18   ar
    37    18    19   ar
    38    18    42    1
    39    19    20   ar
    40    19    43    1
    41    20    21   ar
    42    21    22   ar
    43    21    44    1
    44    22    45    1
    45    23    24    1
    46    23    46    1
    47    23    47    1
    48    24    48    1
    49    24    49    1
    50    25    26   ar
    51    25    50    1
    52    26    27   ar
    53    26    51    1
    54    27    28    1
@<TRIPOS>SUBSTRUCTURE
     1 ZINC000192150625        1 TEMP              0 ****  ****    0 ROOT


##########                                Name:    ZINC000054627026
##########                DOCK_Rotatable_Bonds:                   5
##########                         Heavy_Atoms:                  28
##########                    Molecular_Weight:              370.37
##########                DOCK_Rotatable_Bonds:                   5
##########                       Formal_Charge:         6.85453e-07
##########                     HBond_Acceptors:                   8
##########                        HBond_Donors:                   2
##########                         Heavy_Atoms:                  28
##########                          Grid_Score:          -15.786809
##########                     Grid_vdw_energy:          -15.143434
##########                      Grid_es_energy:           -0.643375
##########           Internal_energy_repulsive:            4.547904

@<TRIPOS>MOLECULE
ZINC000054627026
 42 46 1 0 0
SMALL
USER_CHARGES


@<TRIPOS>ATOM
      1 O1        -12.2754    1.8839   54.7513 O.2     1  ZINC000054627026   -0.5200
      2 C2        -13.2702    1.1942   54.8671 C.2     1  ZINC000054627026    0.6100
      3 N3        -13.8285    1.0151   56.0807 N.am    1  ZINC000054627026   -0.6500
      4 C4        -13.2596    1.6186   57.2091 C.ar    1  ZINC000054627026    0.1400
      5 C5        -13.4179    2.9872   57.4165 C.ar    1  ZINC000054627026   -0.0900
      6 C6        -12.8633    3.5937   58.5234 C.ar    1  ZINC000054627026   -0.0900
      7 C7        -12.1427    2.8399   59.4383 C.ar    1  ZINC000054627026    0.0500
      8 N8        -11.4804    3.1410   60.6157 N.pl3   1  ZINC000054627026   -0.5900
      9 C9        -10.9444    1.9712   61.0889 C.2     1  ZINC000054627026    0.3700
     10 C10       -10.1569    1.8395   62.3235 C.2     1  ZINC000054627026    0.0200
     11 C11       -10.0256    0.7081   63.0725 C.2     1  ZINC000054627026   -0.1200
     12 C12        -9.1886    1.0340   64.1549 C.2     1  ZINC000054627026   -0.2200
     13 C13        -8.8519    2.3334   64.0181 C.2     1  ZINC000054627026   -0.0100
     14 O14        -9.4338    2.8149   62.9093 O.3     1  ZINC000054627026   -0.1700
     15 N15       -11.2413    0.9857   60.2724 N.2     1  ZINC000054627026   -0.4600
     16 C16       -11.9776    1.4576   59.2373 C.ar    1  ZINC000054627026    0.0700
     17 C17       -12.5489    0.8521   58.1137 C.ar    1  ZINC000054627026   -0.0900
     18 C18       -13.8694    0.5586   53.6787 C.2     1  ZINC000054627026   -0.1000
     19 C19       -13.5316    0.8154   52.3800 C.2     1  ZINC000054627026    0.1000
     20 N20       -14.3126    0.0264   51.6102 N.pl3   1  ZINC000054627026   -0.3100
     21 C21       -14.3088   -0.0431   50.2098 C.ar    1  ZINC000054627026    0.1300
     22 C22       -15.1776   -0.9047   49.5537 C.ar    1  ZINC000054627026   -0.1200
     23 C23       -15.1719   -0.9705   48.1742 C.ar    1  ZINC000054627026   -0.1000
     24 C24       -14.3018   -0.1797   47.4464 C.ar    1  ZINC000054627026   -0.1100
     25 C25       -13.4350    0.6790   48.0970 C.ar    1  ZINC000054627026   -0.1000
     26 C26       -13.4404    0.7537   49.4761 C.ar    1  ZINC000054627026   -0.1000
     27 N27       -15.1273   -0.7102   52.4818 N.2     1  ZINC000054627026   -0.0500
     28 N28       -14.8360   -0.3756   53.6905 N.2     1  ZINC000054627026   -0.2000
     29 H29       -14.6244    0.4683   56.1725 H       1  ZINC000054627026    0.4200
     30 H30       -13.9781    3.5765   56.7057 H       1  ZINC000054627026    0.1500
     31 H31       -12.9896    4.6552   58.6781 H       1  ZINC000054627026    0.1300
     32 H32       -11.4085    4.0158   61.0285 H       1  ZINC000054627026    0.4300
     33 H33       -10.4774   -0.2526   62.8736 H       1  ZINC000054627026    0.1600
     34 H34        -8.8750    0.3696   64.9465 H       1  ZINC000054627026    0.1600
     35 H35        -8.2162    2.8926   64.6887 H       1  ZINC000054627026    0.2100
     36 H36       -12.4331   -0.2095   57.9518 H       1  ZINC000054627026    0.1400
     37 H37       -12.7844    1.5147   52.0350 H       1  ZINC000054627026    0.2100
     38 H38       -15.8570   -1.5230   50.1216 H       1  ZINC000054627026    0.1400
     39 H39       -15.8475   -1.6406   47.6633 H       1  ZINC000054627026    0.1400
     40 H40       -14.2989   -0.2332   46.3677 H       1  ZINC000054627026    0.1400
     41 H41       -12.7563    1.2951   47.5259 H       1  ZINC000054627026    0.1400
     42 H42       -12.7631    1.4247   49.9837 H       1  ZINC000054627026    0.1400
@<TRIPOS>BOND
     1     1     2    2
     2     2     3   am
     3     2    18    1
     4     3     4    1
     5     3    29    1
     6     4    17   ar
     7     4     5   ar
     8     5     6   ar
     9     5    30    1
    10     6     7   ar
    11     6    31    1
    12     7    16   ar
    13     7     8    1
    14     8     9    1
    15     8    32    1
    16     9    10    1
    17     9    15    2
    18    10    14    1
    19    10    11    2
    20    11    12    1
    21    11    33    1
    22    12    13    2
    23    12    34    1
    24    13    14    1
    25    13    35    1
    26    15    16    1
    27    16    17   ar
    28    17    36    1
    29    18    28    1
    30    18    19    2
    31    19    20    1
    32    19    37    1
    33    20    21    1
    34    20    27    1
    35    21    26   ar
    36    21    22   ar
    37    22    23   ar
    38    22    38    1
    39    23    24   ar
    40    23    39    1
    41    24    25   ar
    42    24    40    1
    43    25    26   ar
    44    25    41    1
    45    26    42    1
    46    27    28    2
@<TRIPOS>SUBSTRUCTURE
     1 ZINC000054627026        1 TEMP              0 ****  ****    0 ROOT


##########                                Name:     oleObject27.pdb
##########                DOCK_Rotatable_Bonds:                   9
##########                         Heavy_Atoms:                  35
##########                    Molecular_Weight:             513.466
##########                DOCK_Rotatable_Bonds:                   9
##########                       Formal_Charge:         0.000199873
##########                     HBond_Acceptors:                   8
##########                        HBond_Donors:                   1
##########                         Heavy_Atoms:                  35
##########                          Grid_Score:          -14.992513
##########                     Grid_vdw_energy:          -14.911740
##########                      Grid_es_energy:           -0.080772
##########           Internal_energy_repulsive:           63.759560

@<TRIPOS>MOLECULE
oleObject27.pdb
 65 68 1 0 0
SMALL
NO_CHARGES


@<TRIPOS>ATOM
      1 C         -11.8607    6.4162   52.4013 C.ar    1  UNL        -0.0620
      2 C         -12.9519    5.7607   51.8131 C.ar    1  UNL        -0.0590
      3 C         -13.6356    4.7404   52.5028 C.ar    1  UNL        -0.0456
      4 C         -13.2213    4.3765   53.8083 C.ar    1  UNL        -0.0187
      5 C         -12.1138    5.0381   54.3829 C.ar    1  UNL        -0.0565
      6 C         -11.4392    6.0519   53.6866 C.ar    1  UNL        -0.0619
      7 C         -13.9442    3.2693   54.5917 C.3     1  UNL         0.0921
      8 C         -13.4369    1.8678   54.2378 C.ar    1  UNL         0.0681
      9 C         -13.6484    0.7521   55.0862 C.ar    1  UNL        -0.0272
     10 C         -13.1362   -0.4968   54.6872 C.ar    1  UNL        -0.0559
     11 C         -12.4310   -0.5922   53.4787 C.ar    1  UNL        -0.0435
     12 C         -12.2550    0.5677   52.7095 C.ar    1  UNL         0.0272
     13 N         -12.7412    1.7666   53.0818 N.ar    1  UNL        -0.2587
     14 C         -14.3947    0.8651   56.4106 C.3     1  UNL        -0.0379
     15 N         -13.9003    3.4750   56.0466 N.am    1  UNL        -0.2865
     16 C         -15.0134    3.4389   56.8670 C.2     1  UNL         0.3014
     17 O         -16.1316    3.2334   56.4253 O.2     1  UNL        -0.2541
     18 N         -14.7682    3.6580   58.2239 N.am    1  UNL        -0.2833
     19 C         -15.8563    3.6520   59.2395 C.3     1  UNL         0.0284
     20 C         -15.4750    4.2640   60.6094 C.3     1  UNL         0.0142
     21 N         -14.1694    3.7868   61.0974 N.4     1  UNL        -0.2979
     22 C         -13.1239    4.1392   60.1166 C.3     1  UNL         0.0142
     23 C         -13.3832    3.5014   58.7323 C.3     1  UNL         0.0284
     24 C         -14.1945    2.3696   61.5328 C.3     1  UNL         0.0223
     25 C         -12.8123    1.8416   61.9669 C.3     1  UNL         0.0661
     26 O         -12.3384    2.6857   63.0307 O.3     1  UNL        -0.3432
     27 C         -11.1988    2.4225   63.7661 C.ar    1  UNL         0.0937
     28 C         -10.2538    1.4553   63.3617 C.ar    1  UNL        -0.0288
     29 C          -9.1078    1.2187   64.1392 C.ar    1  UNL        -0.0408
     30 C          -8.8984    1.9445   65.3224 C.ar    1  UNL         0.0422
     31 C          -9.8333    2.9083   65.7310 C.ar    1  UNL        -0.0221
     32 C         -10.9802    3.1472   64.9557 C.ar    1  UNL         0.0723
     33 CL        -12.1289    4.3580   65.4944 Cl      1  UNL        -0.0814
     34 CL         -7.4693    1.6473   66.2888 Cl      1  UNL        -0.0843
     35 C         -14.8053    4.0488   51.8104 C.3     1  UNL        -0.0394
     36 H         -11.3399    7.2005   51.8595 H       1  UNL         0.0623
     37 H         -13.2654    6.0472   50.8132 H       1  UNL         0.0626
     38 H         -11.7642    4.7640   55.3738 H       1  UNL         0.0627
     39 H         -10.5899    6.5520   54.1428 H       1  UNL         0.0623
     40 H         -15.0011    3.3265   54.3154 H       1  UNL         0.0625
     41 H         -13.2779   -1.3791   55.3051 H       1  UNL         0.0627
     42 H         -12.0241   -1.5430   53.1473 H       1  UNL         0.0639
     43 H         -11.7090    0.5373   51.7674 H       1  UNL         0.0840
     44 H         -13.9646    1.6536   57.0410 H       1  UNL         0.0280
     45 H         -14.3489   -0.0705   56.9821 H       1  UNL         0.0280
     46 H         -15.4539    1.0993   56.2475 H       1  UNL         0.0280
     47 H         -13.0084    3.6970   56.4661 H       1  UNL         0.1521
     48 H         -16.1721    2.6118   59.3904 H       1  UNL         0.0484
     49 H         -16.7212    4.2107   58.8614 H       1  UNL         0.0484
     50 H         -16.2617    4.0413   61.3417 H       1  UNL         0.0447
     51 H         -15.4356    5.3555   60.4983 H       1  UNL         0.0447
     52 H         -12.1294    3.8492   60.4752 H       1  UNL         0.0447
     53 H         -13.1097    5.2297   59.9914 H       1  UNL         0.0447
     54 H         -13.1624    2.4279   58.7869 H       1  UNL         0.0484
     55 H         -12.6809    3.9448   58.0148 H       1  UNL         0.0484
     56 H         -14.5821    1.7275   60.7318 H       1  UNL         0.0455
     57 H         -14.8744    2.2707   62.3888 H       1  UNL         0.0455
     58 H         -12.1220    1.8780   61.1145 H       1  UNL         0.0586
     59 H         -12.8967    0.8065   62.3196 H       1  UNL         0.0586
     60 H         -10.3951    0.8831   62.4506 H       1  UNL         0.0652
     61 H          -8.3834    0.4731   63.8236 H       1  UNL         0.0639
     62 H          -9.6703    3.4695   66.6468 H       1  UNL         0.0655
     63 H         -14.9197    4.3860   50.7727 H       1  UNL         0.0280
     64 H         -15.7497    4.2584   52.3281 H       1  UNL         0.0280
     65 H         -14.6627    2.9615   51.7837 H       1  UNL         0.0280
@<TRIPOS>BOND
     1     1     2   ar
     2     1     6   ar
     3     1    36    1
     4     2     3   ar
     5     2    37    1
     6     3     4   ar
     7     3    35    1
     8     4     5   ar
     9     4     7    1
    10     5     6   ar
    11     5    38    1
    12     6    39    1
    13     7     8    1
    14     7    15    1
    15     7    40    1
    16     8     9   ar
    17     8    13   ar
    18     9    10   ar
    19     9    14    1
    20    10    11   ar
    21    10    41    1
    22    11    12   ar
    23    11    42    1
    24    12    13   ar
    25    12    43    1
    26    14    44    1
    27    14    45    1
    28    14    46    1
    29    15    16   am
    30    15    47    1
    31    16    17    2
    32    16    18   am
    33    18    19    1
    34    18    23    1
    35    19    20    1
    36    19    48    1
    37    19    49    1
    38    20    21    1
    39    20    50    1
    40    20    51    1
    41    21    22    1
    42    21    24    1
    43    22    23    1
    44    22    52    1
    45    22    53    1
    46    23    54    1
    47    23    55    1
    48    24    25    1
    49    24    56    1
    50    24    57    1
    51    25    26    1
    52    25    58    1
    53    25    59    1
    54    26    27    1
    55    27    28   ar
    56    27    32   ar
    57    28    29   ar
    58    28    60    1
    59    29    30   ar
    60    29    61    1
    61    30    31   ar
    62    30    34    1
    63    31    32   ar
    64    31    62    1
    65    32    33    1
    66    35    63    1
    67    35    64    1
    68    35    65    1
@<TRIPOS>SUBSTRUCTURE
     1 UNL         1 TEMP              0 ****  ****    0 ROOT


##########                                Name:    ZINC000481838178
##########                DOCK_Rotatable_Bonds:                   6
##########                         Heavy_Atoms:                  29
##########                    Molecular_Weight:             408.524
##########                DOCK_Rotatable_Bonds:                   6
##########                       Formal_Charge:         -0.00999962
##########                     HBond_Acceptors:                   7
##########                        HBond_Donors:                   0
##########                         Heavy_Atoms:                  29
##########                          Grid_Score:          -14.880566
##########                     Grid_vdw_energy:          -13.632315
##########                      Grid_es_energy:           -1.248251
##########           Internal_energy_repulsive:            9.364041

@<TRIPOS>MOLECULE
ZINC000481838178
 53 57 1 0 0
SMALL
USER_CHARGES


@<TRIPOS>ATOM
      1 O1        -16.1563    1.8915   61.8819 O.2     1  ZINC000481838178   -0.5200
      2 C2        -15.0058    1.6317   61.5997 C.2     1  ZINC000481838178    0.5500
      3 C3        -13.8872    2.4905   62.1312 C.3     1  ZINC000481838178   -0.1500
      4 S4        -14.4226    4.2189   62.1758 S.3     1  ZINC000481838178    0.1000
      5 C5        -15.0121    4.3994   60.5253 C.2     1  ZINC000481838178    0.1600
      6 N6        -16.2601    4.5882   60.1597 N.2     1  ZINC000481838178   -0.2800
      7 N7        -16.3392    4.6778   58.8804 N.2     1  ZINC000481838178   -0.2500
      8 C8        -15.1440    4.5520   58.3456 C.2     1  ZINC000481838178    0.2700
      9 C9        -14.8175    4.5973   56.9123 C.2     1  ZINC000481838178    0.0300
     10 C10       -13.8758    5.3926   56.3307 C.2     1  ZINC000481838178   -0.1300
     11 C11       -13.9019    5.1094   54.9515 C.2     1  ZINC000481838178   -0.2100
     12 C12       -14.8459    4.1667   54.7588 C.2     1  ZINC000481838178   -0.0100
     13 O13       -15.3930    3.8553   55.9455 O.3     1  ZINC000481838178   -0.1700
     14 N14       -14.2544    4.3753   59.3851 N.pl3   1  ZINC000481838178   -0.4100
     15 C15       -12.8669    4.1990   59.2928 C.ar    1  ZINC000481838178    0.1000
     16 C16       -12.0100    5.0631   59.9609 C.ar    1  ZINC000481838178   -0.0800
     17 C17       -10.6432    4.8870   59.8679 C.ar    1  ZINC000481838178   -0.1100
     18 C18       -10.1281    3.8512   59.1103 C.ar    1  ZINC000481838178   -0.1000
     19 C19       -10.9791    2.9889   58.4437 C.ar    1  ZINC000481838178   -0.1100
     20 C20       -12.3470    3.1565   58.5375 C.ar    1  ZINC000481838178   -0.0900
     21 N21       -14.7271    0.5716   60.8155 N.am    1  ZINC000481838178   -0.6200
     22 C22       -15.7240   -0.3561   60.2172 C.3     1  ZINC000481838178    0.1000
     23 C23       -14.9970   -0.9001   58.9816 C.3     1  ZINC000481838178   -0.1100
     24 H24       -14.9585   -0.1519   58.1899 H       1  ZINC000481838178    0.0900
     25 C25       -15.4897   -2.2311   58.4457 C.3     1  ZINC000481838178   -0.1100
     26 C26       -14.5503   -2.6308   57.2957 C.3     1  ZINC000481838178   -0.1200
     27 C27       -13.0993   -2.7165   57.7579 C.3     1  ZINC000481838178   -0.1200
     28 C28       -12.6445   -1.4154   58.4407 C.3     1  ZINC000481838178   -0.1000
     29 C29       -13.5850   -1.1473   59.5928 C.3     1  ZINC000481838178   -0.1100
     30 H30       -13.6280   -2.0166   60.2489 H       1  ZINC000481838178    0.0900
     31 C31       -13.3730    0.1329   60.3952 C.3     1  ZINC000481838178    0.1200
     32 H32       -13.6261    2.1649   63.1382 H       1  ZINC000481838178    0.1300
     33 H33       -13.0169    2.3964   61.4818 H       1  ZINC000481838178    0.1300
     34 H34       -13.2341    6.1030   56.8308 H       1  ZINC000481838178    0.1600
     35 H35       -13.2826    5.5622   54.1915 H       1  ZINC000481838178    0.1600
     36 H36       -15.1148    3.7305   53.8081 H       1  ZINC000481838178    0.2100
     37 H37       -12.4116    5.8725   60.5525 H       1  ZINC000481838178    0.1300
     38 H38        -9.9761    5.5590   60.3873 H       1  ZINC000481838178    0.1400
     39 H39        -9.0591    3.7156   59.0388 H       1  ZINC000481838178    0.1300
     40 H40       -10.5739    2.1810   57.8523 H       1  ZINC000481838178    0.1400
     41 H41       -13.0111    2.4827   58.0166 H       1  ZINC000481838178    0.1300
     42 H42       -15.9629   -1.1633   60.9097 H       1  ZINC000481838178    0.0800
     43 H43       -16.6258    0.1830   59.9268 H       1  ZINC000481838178    0.0800
     44 H44       -15.4550   -2.9844   59.2328 H       1  ZINC000481838178    0.0700
     45 H45       -16.5092   -2.1276   58.0739 H       1  ZINC000481838178    0.0700
     46 H46       -14.8576   -3.6015   56.9065 H       1  ZINC000481838178    0.0600
     47 H47       -14.6269   -1.8897   56.5001 H       1  ZINC000481838178    0.0600
     48 H48       -12.9985   -3.5421   58.4625 H       1  ZINC000481838178    0.0600
     49 H49       -12.4615   -2.9072   56.8947 H       1  ZINC000481838178    0.0700
     50 H50       -11.6255   -1.5267   58.8113 H       1  ZINC000481838178    0.0700
     51 H51       -12.6953   -0.5874   57.7336 H       1  ZINC000481838178    0.0700
     52 H52       -12.8946    0.8909   59.7751 H       1  ZINC000481838178    0.0700
     53 H53       -12.7654   -0.0716   61.2767 H       1  ZINC000481838178    0.0700
@<TRIPOS>BOND
     1     1     2    2
     2     2     3    1
     3     2    21   am
     4     3     4    1
     5     3    32    1
     6     3    33    1
     7     4     5    1
     8     5    14    1
     9     5     6    2
    10     6     7    1
    11     7     8    2
    12     8     9    1
    13     8    14    1
    14     9    13    1
    15     9    10    2
    16    10    11    1
    17    10    34    1
    18    11    12    2
    19    11    35    1
    20    12    13    1
    21    12    36    1
    22    14    15    1
    23    15    20   ar
    24    15    16   ar
    25    16    17   ar
    26    16    37    1
    27    17    18   ar
    28    17    38    1
    29    18    19   ar
    30    18    39    1
    31    19    20   ar
    32    19    40    1
    33    20    41    1
    34    21    31    1
    35    21    22    1
    36    22    23    1
    37    22    42    1
    38    22    43    1
    39    23    24    1
    40    23    29    1
    41    23    25    1
    42    25    26    1
    43    25    44    1
    44    25    45    1
    45    26    27    1
    46    26    46    1
    47    26    47    1
    48    27    28    1
    49    27    48    1
    50    27    49    1
    51    28    29    1
    52    28    50    1
    53    28    51    1
    54    29    30    1
    55    29    31    1
    56    31    52    1
    57    31    53    1
@<TRIPOS>SUBSTRUCTURE
     1 ZINC000481838178        1 TEMP              0 ****  ****    0 ROOT


##########                                Name:    ZINC001010141213
##########                DOCK_Rotatable_Bonds:                   4
##########                         Heavy_Atoms:                  24
##########                    Molecular_Weight:             330.346
##########                DOCK_Rotatable_Bonds:                   4
##########                       Formal_Charge:          -0.0100003
##########                     HBond_Acceptors:                   9
##########                        HBond_Donors:                   1
##########                         Heavy_Atoms:                  24
##########                          Grid_Score:          -12.871458
##########                     Grid_vdw_energy:          -11.772819
##########                      Grid_es_energy:           -1.098639
##########           Internal_energy_repulsive:          199.041519

@<TRIPOS>MOLECULE
ZINC001010141213
 42 44 1 0 0
SMALL
USER_CHARGES


@<TRIPOS>ATOM
      1 C1         -9.1642    6.3386   55.9152 C.3     1  ZINC001010141213   -0.0800
      2 C2         -8.6779    5.1420   56.6916 C.2     1  ZINC001010141213   -0.1500
      3 C3         -9.0991    4.7257   57.9425 C.2     1  ZINC001010141213   -0.0400
      4 C4        -10.1183    5.3657   58.7895 C.2     1  ZINC001010141213    0.6000
      5 O5        -10.1969    6.5785   58.8353 O.2     1  ZINC001010141213   -0.5100
      6 N6        -10.9649    4.6077   59.5143 N.am    1  ZINC001010141213   -0.6100
      7 C7        -11.9916    5.2329   60.3597 C.3     1  ZINC001010141213    0.0900
      8 C8        -13.3624    4.6719   59.9616 C.3     1  ZINC001010141213    0.0700
      9 N9        -13.2757    3.2054   59.9204 N.am    1  ZINC001010141213   -0.6000
     10 C10       -14.1229    2.4475   60.6444 C.2     1  ZINC001010141213    0.5900
     11 O11       -14.9684    2.9760   61.3396 O.2     1  ZINC001010141213   -0.5200
     12 C12       -14.0238    0.9729   60.5930 C.2     1  ZINC001010141213    0.0300
     13 N13       -13.0424    0.3603   61.2160 N.2     1  ZINC001010141213   -0.1800
     14 N14       -12.9127   -0.9169   61.2016 N.am    1  ZINC001010141213   -0.4400
     15 C15       -13.7786   -1.7104   60.5440 C.2     1  ZINC001010141213    0.4800
     16 O16       -13.6283   -2.9209   60.5496 O.2     1  ZINC001010141213   -0.5100
     17 C17       -14.8630   -1.1318   59.8476 C.2     1  ZINC001010141213   -0.1800
     18 C18       -14.9900    0.2253   59.8774 C.2     1  ZINC001010141213   -0.0400
     19 C19       -12.2489    2.5802   59.0749 C.3     1  ZINC001010141213    0.1000
     20 C20       -10.8818    3.1411   59.4686 C.3     1  ZINC001010141213    0.1000
     21 N21        -8.3793    3.6018   58.2334 N.pl3   1  ZINC001010141213   -0.2700
     22 C22        -8.4979    2.8186   59.4657 C.3     1  ZINC001010141213    0.0900
     23 N23        -7.5829    3.3362   57.2612 N.2     1  ZINC001010141213   -0.2800
     24 C24        -7.7108    4.2139   56.2990 C.2     1  ZINC001010141213    0.0100
     25 H25       -10.0119    6.0489   55.2943 H       1  ZINC001010141213    0.0700
     26 H26        -9.4725    7.1209   56.6087 H       1  ZINC001010141213    0.0600
     27 H27        -8.3599    6.7116   55.2810 H       1  ZINC001010141213    0.0700
     28 H28       -11.7926    5.0039   61.4066 H       1  ZINC001010141213    0.0800
     29 H29       -11.9808    6.3125   60.2103 H       1  ZINC001010141213    0.1000
     30 H30       -14.1087    4.9737   60.6966 H       1  ZINC001010141213    0.1400
     31 H31       -13.6408    5.0498   58.9779 H       1  ZINC001010141213    0.0800
     32 H32       -12.1703   -1.3211   61.6774 H       1  ZINC001010141213    0.4500
     33 H33       -15.5720   -1.7457   59.3120 H       1  ZINC001010141213    0.1700
     34 H34       -15.8013    0.7175   59.3619 H       1  ZINC001010141213    0.1700
     35 H35       -12.2597    1.5005   59.2243 H       1  ZINC001010141213    0.1100
     36 H36       -12.4479    2.8092   58.0279 H       1  ZINC001010141213    0.0800
     37 H37       -10.1366    2.8386   58.7328 H       1  ZINC001010141213    0.1100
     38 H38       -10.6016    2.7651   60.4525 H       1  ZINC001010141213    0.0800
     39 H39        -9.1900    1.9919   59.3057 H       1  ZINC001010141213    0.0900
     40 H40        -7.5195    2.4252   59.7417 H       1  ZINC001010141213    0.1000
     41 H41        -8.8723    3.4561   60.2667 H       1  ZINC001010141213    0.0900
     42 H42        -7.1610    4.2230   55.3695 H       1  ZINC001010141213    0.1900
@<TRIPOS>BOND
     1     1     2    1
     2     1    25    1
     3     1    26    1
     4     1    27    1
     5     2    24    1
     6     2     3    2
     7     3     4    1
     8     3    21    1
     9     4     5    2
    10     4     6   am
    11     6    20    1
    12     6     7    1
    13     7     8    1
    14     7    28    1
    15     7    29    1
    16     8     9    1
    17     8    30    1
    18     8    31    1
    19     9    10   am
    20     9    19    1
    21    10    11    2
    22    10    12    1
    23    12    18    1
    24    12    13    2
    25    13    14    1
    26    14    15   am
    27    14    32    1
    28    15    16    2
    29    15    17    1
    30    17    18    2
    31    17    33    1
    32    18    34    1
    33    19    20    1
    34    19    35    1
    35    19    36    1
    36    20    37    1
    37    20    38    1
    38    21    22    1
    39    21    23    1
    40    22    39    1
    41    22    40    1
    42    22    41    1
    43    23    24    2
    44    24    42    1
@<TRIPOS>SUBSTRUCTURE
     1 ZINC001010141213        1 TEMP              0 ****  ****    0 ROOT


##########                                Name:    ZINC000583220082
##########                DOCK_Rotatable_Bonds:                   9
##########                         Heavy_Atoms:                  29
##########                    Molecular_Weight:             417.492
##########                DOCK_Rotatable_Bonds:                   9
##########                       Formal_Charge:          -0.0400006
##########                     HBond_Acceptors:                  11
##########                        HBond_Donors:                   3
##########                         Heavy_Atoms:                  29
##########                          Grid_Score:          -12.354808
##########                     Grid_vdw_energy:          -11.404809
##########                      Grid_es_energy:           -0.949999
##########           Internal_energy_repulsive:           36.222622

@<TRIPOS>MOLECULE
ZINC000583220082
 52 54 1 0 0
SMALL
USER_CHARGES


@<TRIPOS>ATOM
      1 C1        -11.3973    4.8016   66.7569 C.3     1  ZINC000583220082    0.0800
      2 N2        -10.0562    5.0195   66.2088 N.am    1  ZINC000583220082   -0.6300
      3 C3         -9.2950    6.2124   66.5876 C.3     1  ZINC000583220082    0.0800
      4 C4         -9.5228    4.1223   65.3562 C.2     1  ZINC000583220082    0.5100
      5 O5         -8.4119    4.3018   64.9037 O.2     1  ZINC000583220082   -0.5300
      6 C6        -10.3065    2.8960   64.9652 C.3     1  ZINC000583220082   -0.1000
      7 C7        -11.1284    3.1952   63.7380 C.ar    1  ZINC000583220082   -0.0800
      8 C8        -11.5813    4.4814   63.5078 C.ar    1  ZINC000583220082   -0.0800
      9 C9        -12.3347    4.7592   62.3843 C.ar    1  ZINC000583220082   -0.1400
     10 C10       -12.6371    3.7448   61.4844 C.ar    1  ZINC000583220082    0.1400
     11 N11       -13.3987    4.0223   60.3464 N.am    1  ZINC000583220082   -0.6400
     12 C12       -14.5538    3.3620   60.1311 C.2     1  ZINC000583220082    0.5100
     13 O13       -14.9324    2.5264   60.9258 O.2     1  ZINC000583220082   -0.4900
     14 C14       -15.3680    3.6587   58.9146 C.2     1  ZINC000583220082    0.5100
     15 O15       -16.5038    4.0703   59.0301 O.2     1  ZINC000583220082   -0.5100
     16 N16       -14.8412    3.4694   57.6885 N.am    1  ZINC000583220082   -0.5800
     17 C17       -13.4690    2.9656   57.5260 C.3     1  ZINC000583220082    0.0600
     18 C18       -13.4988    1.7738   56.5633 C.3     1  ZINC000583220082    0.0300
     19 N19       -14.1661    2.1719   55.3167 N.3     1  ZINC000583220082   -0.4300
     20 C20       -14.0700    1.1753   54.3631 C.2     1  ZINC000583220082    0.2900
     21 N21       -13.0464    0.9159   53.5771 N.2     1  ZINC000583220082   -0.5700
     22 C22       -13.1821   -0.0913   52.7394 C.2     1  ZINC000583220082    0.5400
     23 N23       -12.1554   -0.4466   51.8656 N.pl3   1  ZINC000583220082   -0.8200
     24 N24       -14.3125   -0.7458   52.7563 N.2     1  ZINC000583220082   -0.5500
     25 S25       -15.2611    0.0005   53.9523 S.3     1  ZINC000583220082    0.2000
     26 C26       -15.5685    2.5379   55.5562 C.3     1  ZINC000583220082    0.0500
     27 C27       -15.6256    3.7553   56.4776 C.3     1  ZINC000583220082    0.1100
     28 C28       -12.1801    2.4538   61.7186 C.ar    1  ZINC000583220082   -0.1200
     29 C29       -11.4232    2.1842   62.8417 C.ar    1  ZINC000583220082   -0.0800
     30 H30       -12.1370    5.2591   66.0999 H       1  ZINC000583220082    0.0500
     31 H31       -11.5900    3.7313   66.8313 H       1  ZINC000583220082    0.0800
     32 H32       -11.4627    5.2522   67.7472 H       1  ZINC000583220082    0.0700
     33 H33        -9.8842    6.8150   67.2789 H       1  ZINC000583220082    0.0800
     34 H34        -8.3647    5.9119   67.0696 H       1  ZINC000583220082    0.0600
     35 H35        -9.0699    6.7979   65.6963 H       1  ZINC000583220082    0.0600
     36 H36        -9.6186    2.0780   64.7512 H       1  ZINC000583220082    0.1000
     37 H37       -10.9669    2.6105   65.7840 H       1  ZINC000583220082    0.1000
     38 H38       -11.3459    5.2696   64.2077 H       1  ZINC000583220082    0.1300
     39 H39       -12.6887    5.7637   62.2055 H       1  ZINC000583220082    0.1300
     40 H40       -13.0962    4.6901   59.7112 H       1  ZINC000583220082    0.4200
     41 H41       -12.8363    3.7524   57.1151 H       1  ZINC000583220082    0.0900
     42 H42       -13.0795    2.6460   58.4925 H       1  ZINC000583220082    0.1700
     43 H43       -12.4790    1.4570   56.3449 H       1  ZINC000583220082    0.1100
     44 H44       -14.0458    0.9498   57.0214 H       1  ZINC000583220082    0.0700
     45 H45       -12.3222   -1.0866   51.1561 H       1  ZINC000583220082    0.4200
     46 H46       -11.2743   -0.0537   51.9673 H       1  ZINC000583220082    0.4200
     47 H47       -16.0495    2.7754   54.6073 H       1  ZINC000583220082    0.1100
     48 H48       -16.0866    1.7033   56.0284 H       1  ZINC000583220082    0.0600
     49 H49       -16.6609    3.9602   56.7499 H       1  ZINC000583220082    0.1100
     50 H50       -15.1999    4.6200   55.9685 H       1  ZINC000583220082    0.0900
     51 H51       -12.4133    1.6629   61.0210 H       1  ZINC000583220082    0.1400
     52 H52       -11.0675    1.1809   63.0243 H       1  ZINC000583220082    0.1300
@<TRIPOS>BOND
     1     1     2    1
     2     1    30    1
     3     1    31    1
     4     1    32    1
     5     2     3    1
     6     2     4   am
     7     3    33    1
     8     3    34    1
     9     3    35    1
    10     4     5    2
    11     4     6    1
    12     6     7    1
    13     6    36    1
    14     6    37    1
    15     7    29   ar
    16     7     8   ar
    17     8     9   ar
    18     8    38    1
    19     9    10   ar
    20     9    39    1
    21    10    11    1
    22    10    28   ar
    23    11    12   am
    24    11    40    1
    25    12    13    2
    26    12    14    1
    27    14    15    2
    28    14    16   am
    29    16    27    1
    30    16    17    1
    31    17    18    1
    32    17    41    1
    33    17    42    1
    34    18    19    1
    35    18    43    1
    36    18    44    1
    37    19    20    1
    38    19    26    1
    39    20    25    1
    40    20    21    2
    41    21    22    1
    42    22    23    1
    43    22    24    2
    44    23    45    1
    45    23    46    1
    46    24    25    1
    47    26    27    1
    48    26    47    1
    49    26    48    1
    50    27    49    1
    51    27    50    1
    52    28    29   ar
    53    28    51    1
    54    29    52    1
@<TRIPOS>SUBSTRUCTURE
     1 ZINC000583220082        1 TEMP              0 ****  ****    0 ROOT


##########                                Name:    ZINC000426037318
##########                DOCK_Rotatable_Bonds:                   7
##########                         Heavy_Atoms:                  28
##########                    Molecular_Weight:             421.904
##########                DOCK_Rotatable_Bonds:                   7
##########                       Formal_Charge:         -0.00999981
##########                     HBond_Acceptors:                   9
##########                        HBond_Donors:                   1
##########                         Heavy_Atoms:                  28
##########                          Grid_Score:          -12.039346
##########                     Grid_vdw_energy:          -12.003370
##########                      Grid_es_energy:           -0.035975
##########           Internal_energy_repulsive:          180.157059

@<TRIPOS>MOLECULE
ZINC000426037318
 48 50 1 0 0
SMALL
USER_CHARGES


@<TRIPOS>ATOM
      1 C1         -6.8665    2.1829   51.6629 C.3     1  ZINC000426037318    0.0300
      2 O2         -8.0667    2.9184   51.4172 O.3     1  ZINC000426037318   -0.3800
      3 C3         -7.9346    4.3280   51.6109 C.3     1  ZINC000426037318    0.1300
      4 C4         -7.9510    4.6362   53.0859 C.ar    1  ZINC000426037318    0.3900
      5 N5         -6.9799    5.3725   53.5954 N.ar    1  ZINC000426037318   -0.5700
      6 C6         -6.9473    5.6723   54.8829 C.ar    1  ZINC000426037318    0.4400
      7 O7         -5.9445    6.4284   55.3871 O.3     1  ZINC000426037318   -0.2800
      8 C8         -4.6656    6.3112   54.7606 C.3     1  ZINC000426037318    0.0300
      9 C9         -7.9816    5.1887   55.7289 C.ar    1  ZINC000426037318   -0.2000
     10 C10        -8.1738    5.3627   57.1043 C.2     1  ZINC000426037318    0.0500
     11 C11        -7.2203    6.1620   57.9547 C.3     1  ZINC000426037318   -0.1200
     12 C12        -9.2616    4.7717   57.6136 C.2     1  ZINC000426037318   -0.2700
     13 C13        -9.6559    4.8240   59.0269 C.2     1  ZINC000426037318    0.6000
     14 O14        -8.8202    4.6692   59.8978 O.2     1  ZINC000426037318   -0.5000
     15 N15       -10.9433    5.0436   59.3596 N.am    1  ZINC000426037318   -0.6600
     16 C16       -11.3195    5.0935   60.7081 C.ar    1  ZINC000426037318    0.1200
     17 C17       -10.3657    4.9226   61.7019 C.ar    1  ZINC000426037318   -0.0700
     18 C18       -10.7373    4.9724   63.0314 C.ar    1  ZINC000426037318   -0.0900
     19 C19        -9.7015    4.7873   64.1102 C.3     1  ZINC000426037318   -0.1100
     20 C20       -12.0630    5.1931   63.3740 C.ar    1  ZINC000426037318    0.1300
     21 O21       -12.4274    5.2423   64.6830 O.3     1  ZINC000426037318   -0.3100
     22 C22       -13.8093    5.4736   64.9636 C.3     1  ZINC000426037318    0.0200
     23 C23       -13.0177    5.3641   62.3819 C.ar    1  ZINC000426037318   -0.1800
     24 C24       -12.6471    5.3199   61.0517 C.ar    1  ZINC000426037318   -0.0300
     25 Cl25      -13.8412    5.5344   59.8099 Cl      1  ZINC000426037318   -0.0600
     26 S26       -10.1522    3.9260   56.3594 S.3     1  ZINC000426037318    0.2200
     27 C27        -8.9872    4.4119   55.1352 C.ar    1  ZINC000426037318    0.1300
     28 N28        -8.9333    4.1683   53.8214 N.ar    1  ZINC000426037318   -0.5000
     29 H29        -7.0497    1.1217   51.4941 H       1  ZINC000426037318    0.0900
     30 H30        -6.0839    2.5284   50.9873 H       1  ZINC000426037318    0.0500
     31 H31        -6.5502    2.3376   52.6945 H       1  ZINC000426037318    0.0500
     32 H32        -6.9931    4.6675   51.1792 H       1  ZINC000426037318    0.0900
     33 H33        -8.7637    4.8410   51.1234 H       1  ZINC000426037318    0.0800
     34 H34        -4.7475    6.5953   53.7115 H       1  ZINC000426037318    0.0700
     35 H35        -3.9544    6.9688   55.2606 H       1  ZINC000426037318    0.1100
     36 H36        -4.3192    5.2801   54.8319 H       1  ZINC000426037318    0.0700
     37 H37        -7.5386    7.2043   57.9757 H       1  ZINC000426037318    0.0900
     38 H38        -7.2161    5.7629   58.9690 H       1  ZINC000426037318    0.1000
     39 H39        -6.2167    6.0969   57.5344 H       1  ZINC000426037318    0.0800
     40 H40       -11.6094    5.1671   58.6654 H       1  ZINC000426037318    0.4100
     41 H41        -9.3333    4.7503   61.4358 H       1  ZINC000426037318    0.1600
     42 H42        -9.2809    5.7559   64.3802 H       1  ZINC000426037318    0.0700
     43 H43       -10.1664    4.3360   64.9867 H       1  ZINC000426037318    0.0700
     44 H44        -8.9079    4.1359   63.7441 H       1  ZINC000426037318    0.0700
     45 H45       -14.1108    6.4314   64.5396 H       1  ZINC000426037318    0.0600
     46 H46       -14.4080    4.6765   64.5229 H       1  ZINC000426037318    0.0600
     47 H47       -13.9634    5.4894   66.0426 H       1  ZINC000426037318    0.1000
     48 H48       -14.0498    5.5359   62.6495 H       1  ZINC000426037318    0.1500
@<TRIPOS>BOND
     1     1     2    1
     2     1    29    1
     3     1    30    1
     4     1    31    1
     5     2     3    1
     6     3     4    1
     7     3    32    1
     8     3    33    1
     9     4    28   ar
    10     4     5   ar
    11     5     6   ar
    12     6     7    1
    13     6     9   ar
    14     7     8    1
    15     8    34    1
    16     8    35    1
    17     8    36    1
    18     9    27   ar
    19     9    10    1
    20    10    11    1
    21    10    12    2
    22    11    37    1
    23    11    38    1
    24    11    39    1
    25    12    13    1
    26    12    26    1
    27    13    14    2
    28    13    15   am
    29    15    16    1
    30    15    40    1
    31    16    24   ar
    32    16    17   ar
    33    17    18   ar
    34    17    41    1
    35    18    19    1
    36    18    20   ar
    37    19    42    1
    38    19    43    1
    39    19    44    1
    40    20    21    1
    41    20    23   ar
    42    21    22    1
    43    22    45    1
    44    22    46    1
    45    22    47    1
    46    23    24   ar
    47    23    48    1
    48    24    25    1
    49    26    27    1
    50    27    28   ar
@<TRIPOS>SUBSTRUCTURE
     1 ZINC000426037318        1 TEMP              0 ****  ****    0 ROOT


##########                                Name:    ZINC000426567005
##########                DOCK_Rotatable_Bonds:                   9
##########                         Heavy_Atoms:                  31
##########                    Molecular_Weight:             417.467
##########                DOCK_Rotatable_Bonds:                   9
##########                       Formal_Charge:        -2.23517e-07
##########                     HBond_Acceptors:                   8
##########                        HBond_Donors:                   4
##########                         Heavy_Atoms:                  31
##########                          Grid_Score:          -10.572059
##########                     Grid_vdw_energy:          -10.451786
##########                      Grid_es_energy:           -0.120273
##########           Internal_energy_repulsive:           47.036263

@<TRIPOS>MOLECULE
ZINC000426567005
 54 57 1 0 0
SMALL
USER_CHARGES


@<TRIPOS>ATOM
      1 O1         -6.1624    5.4193   61.3070 O.2     1  ZINC000426567005   -0.4900
      2 C2         -6.5110    5.1232   60.1826 C.2     1  ZINC000426567005    0.5200
      3 N3         -7.8005    4.8191   59.9350 N.am    1  ZINC000426567005   -0.6000
      4 C4         -8.7362    4.8390   60.9752 C.2     1  ZINC000426567005    0.3000
      5 N5        -10.0154    4.5645   60.8673 N.2     1  ZINC000426567005   -0.3100
      6 N6        -10.5990    4.6986   62.1335 N.pl3   1  ZINC000426567005   -0.4600
      7 C7         -9.6327    5.0614   63.0034 C.2     1  ZINC000426567005    0.1100
      8 C8         -9.8158    5.3151   64.4776 C.3     1  ZINC000426567005   -0.0300
      9 C9        -11.2809    5.7156   64.7809 C.3     1  ZINC000426567005   -0.1200
     10 C10       -11.4346    5.3422   66.2762 C.3     1  ZINC000426567005   -0.1300
     11 C11       -10.6346    4.0314   66.4231 C.3     1  ZINC000426567005   -0.1300
     12 C12        -9.6053    4.0141   65.2795 C.3     1  ZINC000426567005   -0.1200
     13 C13        -8.4700    5.1503   62.3188 C.2     1  ZINC000426567005   -0.2600
     14 C14        -5.5130    5.1020   59.0730 C.2     1  ZINC000426567005    0.5200
     15 O15        -5.7912    4.5734   58.0164 O.2     1  ZINC000426567005   -0.4900
     16 N16        -4.3026    5.6696   59.2444 N.am    1  ZINC000426567005   -0.6400
     17 C17        -3.3713    5.6498   58.2090 C.ar    1  ZINC000426567005    0.1700
     18 C18        -2.1610    4.9833   58.3763 C.ar    1  ZINC000426567005   -0.1300
     19 C19        -1.2384    4.9617   57.3549 C.ar    1  ZINC000426567005   -0.0300
     20 C20        -1.5184    5.6099   56.1486 C.ar    1  ZINC000426567005   -0.1500
     21 C21        -0.5318    5.5884   55.0513 C.2     1  ZINC000426567005    0.5600
     22 O22        -0.9066    5.4913   53.8987 O.2     1  ZINC000426567005   -0.5100
     23 N23         0.7846    5.6763   55.3268 N.am    1  ZINC000426567005   -0.6700
     24 C24         1.7195    5.6560   54.2870 C.ar    1  ZINC000426567005    0.1400
     25 C25         2.9121    6.3572   54.4096 C.ar    1  ZINC000426567005   -0.1500
     26 C26         3.8336    6.3346   53.3811 C.ar    1  ZINC000426567005   -0.1000
     27 C27         3.5697    5.6150   52.2301 C.ar    1  ZINC000426567005   -0.1300
     28 C28         2.3831    4.9161   52.1047 C.ar    1  ZINC000426567005   -0.1000
     29 C29         1.4600    4.9298   53.1318 C.ar    1  ZINC000426567005   -0.1200
     30 C30        -2.7349    6.2779   55.9836 C.ar    1  ZINC000426567005   -0.0600
     31 C31        -3.6553    6.2916   57.0072 C.ar    1  ZINC000426567005   -0.1400
     32 H32        -8.0799    4.5865   59.0356 H       1  ZINC000426567005    0.4300
     33 H33       -11.5343    4.5557   62.3479 H       1  ZINC000426567005    0.4400
     34 H34        -9.1282    6.0890   64.8188 H       1  ZINC000426567005    0.1100
     35 H35       -11.4275    6.7854   64.6328 H       1  ZINC000426567005    0.0800
     36 H36       -11.9736    5.1408   64.1662 H       1  ZINC000426567005    0.0700
     37 H37       -11.0101    6.1212   66.9095 H       1  ZINC000426567005    0.0700
     38 H38       -12.4837    5.1786   66.5227 H       1  ZINC000426567005    0.0700
     39 H39       -10.1236    4.0118   67.3857 H       1  ZINC000426567005    0.0700
     40 H40       -11.3027    3.1745   66.3371 H       1  ZINC000426567005    0.0700
     41 H41        -9.7739    3.1490   64.6384 H       1  ZINC000426567005    0.0600
     42 H42        -8.5947    3.9862   65.6871 H       1  ZINC000426567005    0.0700
     43 H43        -7.5088    5.4198   62.7305 H       1  ZINC000426567005    0.1700
     44 H44        -4.0802    6.0920   60.0888 H       1  ZINC000426567005    0.4300
     45 H45        -1.9453    4.4826   59.3086 H       1  ZINC000426567005    0.1500
     46 H46        -0.2992    4.4451   57.4856 H       1  ZINC000426567005    0.1400
     47 H47         1.0835    5.7537   56.2464 H       1  ZINC000426567005    0.4100
     48 H48         3.1186    6.9197   55.3082 H       1  ZINC000426567005    0.1300
     49 H49         4.7609    6.8800   53.4756 H       1  ZINC000426567005    0.1300
     50 H50         4.2920    5.5989   51.4272 H       1  ZINC000426567005    0.1200
     51 H51         2.1798    4.3556   51.2042 H       1  ZINC000426567005    0.1300
     52 H52         0.5335    4.3836   53.0335 H       1  ZINC000426567005    0.1300
     53 H53        -2.9541    6.7800   55.0528 H       1  ZINC000426567005    0.1300
     54 H54        -4.5956    6.8077   56.8803 H       1  ZINC000426567005    0.1400
@<TRIPOS>BOND
     1     1     2    2
     2     2     3   am
     3     2    14    1
     4     3     4    1
     5     3    32    1
     6     4    13    1
     7     4     5    2
     8     5     6    1
     9     6     7    1
    10     6    33    1
    11     7     8    1
    12     7    13    2
    13     8    12    1
    14     8     9    1
    15     8    34    1
    16     9    10    1
    17     9    35    1
    18     9    36    1
    19    10    11    1
    20    10    37    1
    21    10    38    1
    22    11    12    1
    23    11    39    1
    24    11    40    1
    25    12    41    1
    26    12    42    1
    27    13    43    1
    28    14    15    2
    29    14    16   am
    30    16    17    1
    31    16    44    1
    32    17    31   ar
    33    17    18   ar
    34    18    19   ar
    35    18    45    1
    36    19    20   ar
    37    19    46    1
    38    20    21    1
    39    20    30   ar
    40    21    22    2
    41    21    23   am
    42    23    24    1
    43    23    47    1
    44    24    29   ar
    45    24    25   ar
    46    25    26   ar
    47    25    48    1
    48    26    27   ar
    49    26    49    1
    50    27    28   ar
    51    27    50    1
    52    28    29   ar
    53    28    51    1
    54    29    52    1
    55    30    31   ar
    56    30    53    1
    57    31    54    1
@<TRIPOS>SUBSTRUCTURE
     1 ZINC000426567005        1 TEMP              0 ****  ****    0 ROOT


##########                                Name:    ZINC000603906271
##########                DOCK_Rotatable_Bonds:                   8
##########                         Heavy_Atoms:                  29
##########                    Molecular_Weight:             391.473
##########                DOCK_Rotatable_Bonds:                   8
##########                       Formal_Charge:           0.0499998
##########                     HBond_Acceptors:                   7
##########                        HBond_Donors:                   3
##########                         Heavy_Atoms:                  29
##########                          Grid_Score:           -2.132774
##########                     Grid_vdw_energy:           -2.259567
##########                      Grid_es_energy:            0.126794
##########           Internal_energy_repulsive:           35.025524

@<TRIPOS>MOLECULE
ZINC000603906271
 54 56 1 0 0
SMALL
USER_CHARGES


@<TRIPOS>ATOM
      1 C1        -13.7672    2.2727   62.7605 C.3     1  ZINC000603906271   -0.1600
      2 C2        -12.6795    2.8797   61.8720 C.3     1  ZINC000603906271    0.1300
      3 H3        -13.0459    3.8069   61.4312 H       1  ZINC000603906271    0.1200
      4 N4        -11.4894    3.1596   62.6792 N.am    1  ZINC000603906271   -0.7100
      5 C5        -10.8224    2.1482   63.2697 C.2     1  ZINC000603906271    0.5700
      6 O6        -11.2093    1.0039   63.1340 O.2     1  ZINC000603906271   -0.5300
      7 C7         -9.6204    2.4305   64.0828 C.ar    1  ZINC000603906271   -0.1400
      8 C8         -9.0925    3.7218   64.1283 C.ar    1  ZINC000603906271   -0.0800
      9 C9         -7.9708    3.9787   64.8893 C.ar    1  ZINC000603906271   -0.1200
     10 C10        -7.3691    2.9595   65.6061 C.ar    1  ZINC000603906271   -0.0400
     11 C11        -6.1438    3.2474   66.4348 C.3     1  ZINC000603906271   -0.0400
     12 C12        -4.8909    3.0420   65.5811 C.3     1  ZINC000603906271   -0.1400
     13 C13        -6.1917    4.6940   66.9305 C.3     1  ZINC000603906271   -0.1500
     14 C14        -6.1048    2.2983   67.6343 C.3     1  ZINC000603906271   -0.1400
     15 C15        -7.8876    1.6774   65.5656 C.ar    1  ZINC000603906271   -0.1300
     16 C16        -9.0119    1.4083   64.8128 C.ar    1  ZINC000603906271   -0.0500
     17 C17       -12.3260    1.9078   60.7759 C.2     1  ZINC000603906271    0.5100
     18 O18       -11.5498    2.2344   59.9029 O.2     1  ZINC000603906271   -0.5100
     19 N19       -12.8723    0.6759   60.7655 N.am    1  ZINC000603906271   -0.6700
     20 C20       -12.5440   -0.2265   59.7476 C.ar    1  ZINC000603906271    0.1300
     21 C21       -13.4166   -0.4222   58.6844 C.ar    1  ZINC000603906271   -0.1200
     22 C22       -13.0957   -1.3126   57.6771 C.ar    1  ZINC000603906271   -0.1000
     23 C23       -11.9069   -2.0128   57.7221 C.ar    1  ZINC000603906271   -0.0900
     24 C24       -11.0258   -1.8232   58.7854 C.ar    1  ZINC000603906271    0.0000
     25 C25        -9.7475   -2.5756   58.8355 C.2     1  ZINC000603906271    0.2700
     26 N26        -8.7584   -2.3512   59.6725 N.2     1  ZINC000603906271   -0.3000
     27 N27        -7.7546   -3.2861   59.3713 N.pl3   1  ZINC000603906271   -0.4800
     28 C28        -8.2174   -4.0282   58.3493 C.2     1  ZINC000603906271    0.2700
     29 N29        -9.4124   -3.5997   58.0393 N.2     1  ZINC000603906271   -0.5300
     30 C30       -11.3449   -0.9217   59.7968 C.ar    1  ZINC000603906271   -0.0800
     31 H31       -13.4009    1.3456   63.2013 H       1  ZINC000603906271    0.0700
     32 H32       -14.0230    2.9758   63.5534 H       1  ZINC000603906271    0.0800
     33 H33       -14.6527    2.0645   62.1600 H       1  ZINC000603906271    0.0700
     34 H34       -11.1814    4.0729   62.7885 H       1  ZINC000603906271    0.4100
     35 H35        -9.5607    4.5181   63.5688 H       1  ZINC000603906271    0.1300
     36 H36        -7.5612    4.9774   64.9255 H       1  ZINC000603906271    0.1300
     37 H37        -4.9186    3.7181   64.7266 H       1  ZINC000603906271    0.0600
     38 H38        -4.0046    3.2502   66.1805 H       1  ZINC000603906271    0.0600
     39 H39        -4.8567    2.0113   65.2280 H       1  ZINC000603906271    0.0600
     40 H40        -7.0843    4.8404   67.5387 H       1  ZINC000603906271    0.0600
     41 H41        -5.3054    4.9023   67.5299 H       1  ZINC000603906271    0.0600
     42 H42        -6.2195    5.3702   66.0760 H       1  ZINC000603906271    0.0600
     43 H43        -6.0707    1.2677   67.2811 H       1  ZINC000603906271    0.0600
     44 H44        -5.2186    2.5066   68.2337 H       1  ZINC000603906271    0.0600
     45 H45        -6.9974    2.4446   68.2425 H       1  ZINC000603906271    0.0600
     46 H46        -7.4134    0.8864   66.1276 H       1  ZINC000603906271    0.1400
     47 H47        -9.4160    0.4071   64.7823 H       1  ZINC000603906271    0.1400
     48 H48       -13.4930    0.4147   61.4636 H       1  ZINC000603906271    0.4200
     49 H49       -14.3482    0.1228   58.6449 H       1  ZINC000603906271    0.1300
     50 H50       -13.7773   -1.4613   56.8526 H       1  ZINC000603906271    0.1400
     51 H51       -11.6597   -2.7081   56.9336 H       1  ZINC000603906271    0.1400
     52 H52        -6.8961   -3.3783   59.8134 H       1  ZINC000603906271    0.4400
     53 H53        -7.6931   -4.8419   57.8701 H       1  ZINC000603906271    0.2300
     54 H54       -10.6654   -0.7713   60.6226 H       1  ZINC000603906271    0.1500
@<TRIPOS>BOND
     1     1     2    1
     2     1    31    1
     3     1    32    1
     4     1    33    1
     5     2     3    1
     6     2     4    1
     7     2    17    1
     8     4     5   am
     9     4    34    1
    10     5     6    2
    11     5     7    1
    12     7    16   ar
    13     7     8   ar
    14     8     9   ar
    15     8    35    1
    16     9    10   ar
    17     9    36    1
    18    10    11    1
    19    10    15   ar
    20    11    12    1
    21    11    13    1
    22    11    14    1
    23    12    37    1
    24    12    38    1
    25    12    39    1
    26    13    40    1
    27    13    41    1
    28    13    42    1
    29    14    43    1
    30    14    44    1
    31    14    45    1
    32    15    16   ar
    33    15    46    1
    34    16    47    1
    35    17    18    2
    36    17    19   am
    37    19    20    1
    38    19    48    1
    39    20    30   ar
    40    20    21   ar
    41    21    22   ar
    42    21    49    1
    43    22    23   ar
    44    22    50    1
    45    23    24   ar
    46    23    51    1
    47    24    25    1
    48    24    30   ar
    49    25    29    1
    50    25    26    2
    51    26    27    1
    52    27    28    1
    53    27    52    1
    54    28    29    2
    55    28    53    1
    56    30    54    1
@<TRIPOS>SUBSTRUCTURE
     1 ZINC000603906271        1 TEMP              0 ****  ****    0 ROOT

