
##########                                Name:     oleObject80.pdb
##########                DOCK_Rotatable_Bonds:                  14
##########                         Heavy_Atoms:                  51
##########                    Molecular_Weight:             703.283
##########                DOCK_Rotatable_Bonds:                  14
##########                       Formal_Charge:         0.000299793
##########                     HBond_Acceptors:                  10
##########                        HBond_Donors:                   3
##########                         Heavy_Atoms:                  51
##########                          Grid_Score:          -40.999638
##########                     Grid_vdw_energy:          -40.204430
##########                      Grid_es_energy:           -0.795208
##########           Internal_energy_repulsive:           26.825161

@<TRIPOS>MOLECULE
oleObject80.pdb
 94 99 1 0 0
SMALL
NO_CHARGES


@<TRIPOS>ATOM
      1 C          -9.1430    1.2354   63.7215 C.ar    1  UNL        -0.0620
      2 C         -10.3410    1.8644   63.3544 C.ar    1  UNL        -0.0590
      3 C         -10.6803    2.0316   61.9977 C.ar    1  UNL        -0.0456
      4 C          -9.8011    1.5601   60.9897 C.ar    1  UNL        -0.0185
      5 C          -8.5989    0.9267   61.3765 C.ar    1  UNL        -0.0565
      6 C          -8.2720    0.7651   62.7308 C.ar    1  UNL        -0.0619
      7 C         -10.1414    1.7365   59.4990 C.3     1  UNL         0.0931
      8 C          -8.9368    2.1400   58.6300 C.ar    1  UNL         0.0683
      9 C          -8.4621    3.4757   58.5935 C.ar    1  UNL        -0.0272
     10 C          -7.3594    3.7734   57.7710 C.ar    1  UNL        -0.0559
     11 C          -6.7666    2.7460   57.0232 C.ar    1  UNL        -0.0435
     12 C          -7.2944    1.4507   57.1252 C.ar    1  UNL         0.0272
     13 N          -8.3484    1.1561   57.9088 N.ar    1  UNL        -0.2587
     14 C          -9.1029    4.5905   59.4130 C.3     1  UNL        -0.0379
     15 N         -10.9418    0.6182   58.9217 N.am    1  UNL        -0.2918
     16 C         -11.7978    0.8431   57.8376 C.2     1  UNL         0.2180
     17 O         -11.7147    1.8683   57.1810 O.2     1  UNL        -0.2772
     18 C         -12.5919   -0.3738   57.3001 C.3     1  UNL         0.0385
     19 C         -11.8056   -1.1447   56.2112 C.3     1  UNL        -0.0289
     20 C         -11.7584   -0.3694   54.8786 C.3     1  UNL        -0.0010
     21 N         -13.1156   -0.0632   54.3781 N.4     1  UNL        -0.3010
     22 C         -13.9387    0.6906   55.3542 C.3     1  UNL        -0.0010
     23 C         -13.9897    0.0098   56.7456 C.3     1  UNL        -0.0289
     24 C         -13.0705    0.5418   53.0284 C.3     1  UNL         0.0222
     25 C         -11.9721    1.6134   52.8711 C.3     1  UNL         0.0661
     26 O         -10.8346    0.9877   52.2509 O.3     1  UNL        -0.3432
     27 C          -9.6539    1.6507   51.9761 C.ar    1  UNL         0.0937
     28 C          -9.6298    2.8943   51.3127 C.ar    1  UNL        -0.0284
     29 C          -8.4062    3.5329   51.0519 C.ar    1  UNL        -0.0381
     30 C          -7.1922    2.9530   51.4583 C.ar    1  UNL         0.0319
     31 C          -7.2168    1.7002   52.1012 C.ar    1  UNL        -0.0194
     32 C          -8.4373    1.0563   52.3634 C.ar    1  UNL         0.0727
     33 CL         -8.4149   -0.5007   53.1703 Cl      1  UNL        -0.0814
     34 N          -6.0010    3.6133   51.1632 N.pl3   1  UNL        -0.3136
     35 C          -4.7427    3.1360   50.7976 C.ar    1  UNL         0.0489
     36 C          -3.5933    3.6776   51.3997 C.ar    1  UNL         0.0488
     37 N          -2.3435    3.2593   51.1164 N.ar    1  UNL        -0.2543
     38 C          -2.1502    2.2619   50.2256 C.ar    1  UNL         0.0703
     39 C          -3.2602    1.6499   49.5874 C.ar    1  UNL        -0.0339
     40 C          -4.5628    2.0858   49.8789 C.ar    1  UNL        -0.0371
     41 C          -0.7268    1.8458   49.9658 C.ar    1  UNL         0.0009
     42 C           0.2753    1.9572   50.9648 C.ar    1  UNL        -0.0402
     43 C           1.6123    1.5714   50.7337 C.ar    1  UNL         0.0375
     44 C           1.9612    1.0597   49.4666 C.ar    1  UNL        -0.0496
     45 C           0.9933    0.9434   48.4594 C.ar    1  UNL        -0.0608
     46 C          -0.3314    1.3324   48.7040 C.ar    1  UNL        -0.0528
     47 C           2.6280    1.7183   51.8408 C.2     1  UNL         0.2403
     48 O           3.7809    1.3432   51.7238 O.2     1  UNL        -0.2722
     49 N           2.2078    2.3034   53.0166 N.am    1  UNL        -0.3251
     50 C         -10.7251   -0.7322   59.4880 C.3     1  UNL         0.0037
     51 C         -11.9992    2.7198   61.6581 C.3     1  UNL        -0.0394
     52 H          -8.8922    1.1113   64.7711 H       1  UNL         0.0623
     53 H         -11.0098    2.2235   64.1317 H       1  UNL         0.0626
     54 H          -7.9096    0.5458   60.6296 H       1  UNL         0.0627
     55 H          -7.3443    0.2743   63.0108 H       1  UNL         0.0623
     56 H         -10.7969    2.6106   59.4728 H       1  UNL         0.0626
     57 H          -6.9670    4.7846   57.7117 H       1  UNL         0.0627
     58 H          -5.9150    2.9480   56.3804 H       1  UNL         0.0639
     59 H          -6.8616    0.6241   56.5633 H       1  UNL         0.0840
     60 H         -10.1157    4.8104   59.0528 H       1  UNL         0.0280
     61 H          -8.5239    5.5204   59.3531 H       1  UNL         0.0280
     62 H          -9.1701    4.3166   60.4732 H       1  UNL         0.0280
     63 H         -12.7690   -1.0517   58.1431 H       1  UNL         0.0402
     64 H         -12.2899   -2.1143   56.0375 H       1  UNL         0.0288
     65 H         -10.7860   -1.3635   56.5461 H       1  UNL         0.0288
     66 H         -11.2168   -0.9767   54.1419 H       1  UNL         0.0431
     67 H         -11.1930    0.5615   55.0221 H       1  UNL         0.0431
     68 H         -14.9689    0.7855   54.9917 H       1  UNL         0.0431
     69 H         -13.5375    1.7062   55.4599 H       1  UNL         0.0431
     70 H         -14.5914   -0.9040   56.6565 H       1  UNL         0.0288
     71 H         -14.5138    0.6582   57.4591 H       1  UNL         0.0288
     72 H         -14.0355    1.0203   52.8159 H       1  UNL         0.0455
     73 H         -12.9175   -0.2405   52.2736 H       1  UNL         0.0455
     74 H         -11.6907    2.0138   53.8526 H       1  UNL         0.0586
     75 H         -12.3467    2.4304   52.2414 H       1  UNL         0.0586
     76 H         -10.5489    3.3744   50.9932 H       1  UNL         0.0652
     77 H          -8.4031    4.4906   50.5387 H       1  UNL         0.0644
     78 H          -6.2909    1.2085   52.3825 H       1  UNL         0.0659
     79 H          -6.0567    4.6213   51.2346 H       1  UNL         0.1528
     80 H          -3.6744    4.4824   52.1292 H       1  UNL         0.0861
     81 H          -3.1237    0.8517   48.8661 H       1  UNL         0.0646
     82 H          -5.4114    1.5984   49.4093 H       1  UNL         0.0644
     83 H           0.0180    2.3674   51.9352 H       1  UNL         0.0638
     84 H           2.9786    0.7508   49.2481 H       1  UNL         0.0631
     85 H           1.2696    0.5491   47.4854 H       1  UNL         0.0623
     86 H          -1.0588    1.2235   47.9045 H       1  UNL         0.0630
     87 H           2.8559    2.4212   53.7836 H       1  UNL         0.1458
     88 H           1.2469    2.6112   53.0955 H       1  UNL         0.1458
     89 H         -10.0890   -0.7035   60.3789 H       1  UNL         0.0433
     90 H         -10.2352   -1.3774   58.7495 H       1  UNL         0.0433
     91 H         -11.6911   -1.1721   59.7654 H       1  UNL         0.0433
     92 H         -12.5663    2.9790   62.5608 H       1  UNL         0.0280
     93 H         -12.6408    2.0713   61.0494 H       1  UNL         0.0280
     94 H         -11.8302    3.6508   61.1030 H       1  UNL         0.0280
@<TRIPOS>BOND
     1     1     2   ar
     2     1     6   ar
     3     1    52    1
     4     2     3   ar
     5     2    53    1
     6     3     4   ar
     7     3    51    1
     8     4     5   ar
     9     4     7    1
    10     5     6   ar
    11     5    54    1
    12     6    55    1
    13     7     8    1
    14     7    15    1
    15     7    56    1
    16     8     9   ar
    17     8    13   ar
    18     9    10   ar
    19     9    14    1
    20    10    11   ar
    21    10    57    1
    22    11    12   ar
    23    11    58    1
    24    12    13   ar
    25    12    59    1
    26    14    60    1
    27    14    61    1
    28    14    62    1
    29    15    16   am
    30    15    50    1
    31    16    17    2
    32    16    18    1
    33    18    19    1
    34    18    23    1
    35    18    63    1
    36    19    20    1
    37    19    64    1
    38    19    65    1
    39    20    21    1
    40    20    66    1
    41    20    67    1
    42    21    22    1
    43    21    24    1
    44    22    23    1
    45    22    68    1
    46    22    69    1
    47    23    70    1
    48    23    71    1
    49    24    25    1
    50    24    72    1
    51    24    73    1
    52    25    26    1
    53    25    74    1
    54    25    75    1
    55    26    27    1
    56    27    28   ar
    57    27    32   ar
    58    28    29   ar
    59    28    76    1
    60    29    30   ar
    61    29    77    1
    62    30    31   ar
    63    30    34    1
    64    31    32   ar
    65    31    78    1
    66    32    33    1
    67    34    35    1
    68    34    79    1
    69    35    36   ar
    70    35    40   ar
    71    36    37   ar
    72    36    80    1
    73    37    38   ar
    74    38    39   ar
    75    38    41    1
    76    39    40   ar
    77    39    81    1
    78    40    82    1
    79    41    42   ar
    80    41    46   ar
    81    42    43   ar
    82    42    83    1
    83    43    44   ar
    84    43    47    1
    85    44    45   ar
    86    44    84    1
    87    45    46   ar
    88    45    85    1
    89    46    86    1
    90    47    48    2
    91    47    49   am
    92    49    87    1
    93    49    88    1
    94    50    89    1
    95    50    90    1
    96    50    91    1
    97    51    92    1
    98    51    93    1
    99    51    94    1
@<TRIPOS>SUBSTRUCTURE
     1 UNL         1 TEMP              0 ****  ****    0 ROOT


##########                                Name:    ZINC000008416770
##########                DOCK_Rotatable_Bonds:                  13
##########                         Heavy_Atoms:                  30
##########                    Molecular_Weight:             412.442
##########                DOCK_Rotatable_Bonds:                  13
##########                       Formal_Charge:          -0.0199998
##########                     HBond_Acceptors:                   8
##########                        HBond_Donors:                   2
##########                         Heavy_Atoms:                  30
##########                          Grid_Score:          -40.844810
##########                     Grid_vdw_energy:          -32.683014
##########                      Grid_es_energy:           -8.161798
##########           Internal_energy_repulsive:           14.039783

@<TRIPOS>MOLECULE
ZINC000008416770
 54 55 1 0 0
SMALL
USER_CHARGES


@<TRIPOS>ATOM
      1 C1          2.8889    0.4021   64.1535 C.3     1  ZINC000008416770   -0.1500
      2 C2          2.5570    1.1962   65.4185 C.3     1  ZINC000008416770    0.0600
      3 O3          1.1157    1.3018   65.5593 O.3     1  ZINC000008416770   -0.3500
      4 C4          0.6535    1.9759   66.6307 C.2     1  ZINC000008416770    0.5100
      5 O5          1.4334    2.4626   67.4250 O.2     1  ZINC000008416770   -0.5100
      6 C6         -0.7990    2.1229   66.8389 C.ar    1  ZINC000008416770   -0.1500
      7 C7         -1.2804    2.8261   67.9472 C.ar    1  ZINC000008416770   -0.0400
      8 C8         -2.6368    2.9616   68.1381 C.ar    1  ZINC000008416770   -0.1400
      9 C9         -3.5285    2.3996   67.2297 C.ar    1  ZINC000008416770    0.1800
     10 N10        -4.9017    2.5389   67.4263 N.am    1  ZINC000008416770   -0.6700
     11 C11        -5.6977    1.4515   67.4152 C.2     1  ZINC000008416770    0.5200
     12 O12        -5.2195    0.3517   67.2343 O.2     1  ZINC000008416770   -0.5100
     13 C13        -7.1820    1.6021   67.6277 C.3     1  ZINC000008416770   -0.1300
     14 C14        -7.8913    1.6277   66.2721 C.3     1  ZINC000008416770   -0.1000
     15 C15        -8.2637    0.2230   65.8734 C.2     1  ZINC000008416770    0.4700
     16 O16        -8.1285   -0.6842   66.6601 O.2     1  ZINC000008416770   -0.5100
     17 O17        -8.7453   -0.0205   64.6445 O.3     1  ZINC000008416770   -0.3300
     18 C18        -7.8374    0.1788   63.5290 C.3     1  ZINC000008416770    0.0500
     19 C19        -8.5723   -0.0573   62.2348 C.2     1  ZINC000008416770    0.5100
     20 O20        -9.6886    0.3911   62.0806 O.2     1  ZINC000008416770   -0.4900
     21 N21        -7.9890   -0.7667   61.2484 N.am    1  ZINC000008416770   -0.6700
     22 C22        -8.6713   -0.9860   60.0466 C.ar    1  ZINC000008416770    0.1400
     23 C23        -8.3721   -0.2208   58.9270 C.ar    1  ZINC000008416770   -0.1400
     24 C24        -9.0474   -0.4397   57.7422 C.ar    1  ZINC000008416770   -0.1000
     25 C25       -10.0208   -1.4192   57.6703 C.ar    1  ZINC000008416770   -0.1000
     26 C26       -10.7559   -1.6550   56.3760 C.3     1  ZINC000008416770   -0.1200
     27 C27       -10.3207   -2.1831   58.7832 C.ar    1  ZINC000008416770   -0.1000
     28 C28        -9.6451   -1.9730   59.9693 C.ar    1  ZINC000008416770   -0.1200
     29 C29        -3.0529    1.6993   66.1253 C.ar    1  ZINC000008416770   -0.1600
     30 C30        -1.6978    1.5640   65.9254 C.ar    1  ZINC000008416770   -0.0300
     31 H31         2.4570   -0.5960   64.2272 H       1  ZINC000008416770    0.0700
     32 H32         2.4754    0.9138   63.2844 H       1  ZINC000008416770    0.0700
     33 H33         3.9708    0.3230   64.0477 H       1  ZINC000008416770    0.0800
     34 H34         2.9705    0.6847   66.2875 H       1  ZINC000008416770    0.0700
     35 H35         2.9889    2.1943   65.3448 H       1  ZINC000008416770    0.0700
     36 H36        -0.5888    3.2623   68.6527 H       1  ZINC000008416770    0.1400
     37 H37        -3.0094    3.5045   68.9941 H       1  ZINC000008416770    0.1400
     38 H38        -5.2841    3.4186   67.5709 H       1  ZINC000008416770    0.4200
     39 H39        -7.5520    0.7620   68.2154 H       1  ZINC000008416770    0.1100
     40 H40        -7.3804    2.5329   68.1591 H       1  ZINC000008416770    0.1100
     41 H41        -8.7929    2.2357   66.3453 H       1  ZINC000008416770    0.1200
     42 H42        -7.2255    2.0541   65.5218 H       1  ZINC000008416770    0.1200
     43 H43        -7.4557    1.1995   63.5493 H       1  ZINC000008416770    0.1100
     44 H44        -7.0059   -0.5216   63.6077 H       1  ZINC000008416770    0.1100
     45 H45        -7.0962   -1.1253   61.3716 H       1  ZINC000008416770    0.4100
     46 H46        -7.6125    0.5448   58.9827 H       1  ZINC000008416770    0.1300
     47 H47        -8.8152    0.1550   56.8712 H       1  ZINC000008416770    0.1300
     48 H48       -10.2215   -2.3986   55.7849 H       1  ZINC000008416770    0.0700
     49 H49       -11.7621   -2.0157   56.5902 H       1  ZINC000008416770    0.0700
     50 H50       -10.8161   -0.7212   55.8170 H       1  ZINC000008416770    0.0700
     51 H51       -11.0816   -2.9474   58.7239 H       1  ZINC000008416770    0.1300
     52 H52        -9.8798   -2.5700   60.8383 H       1  ZINC000008416770    0.1300
     53 H53        -3.7479    1.2647   65.4220 H       1  ZINC000008416770    0.1400
     54 H54        -1.3294    1.0203   65.0681 H       1  ZINC000008416770    0.1400
@<TRIPOS>BOND
     1     1     2    1
     2     1    31    1
     3     1    32    1
     4     1    33    1
     5     2     3    1
     6     2    34    1
     7     2    35    1
     8     3     4    1
     9     4     5    2
    10     4     6    1
    11     6    30   ar
    12     6     7   ar
    13     7     8   ar
    14     7    36    1
    15     8     9   ar
    16     8    37    1
    17     9    10    1
    18     9    29   ar
    19    10    11   am
    20    10    38    1
    21    11    12    2
    22    11    13    1
    23    13    14    1
    24    13    39    1
    25    13    40    1
    26    14    15    1
    27    14    41    1
    28    14    42    1
    29    15    16    2
    30    15    17    1
    31    17    18    1
    32    18    19    1
    33    18    43    1
    34    18    44    1
    35    19    20    2
    36    19    21   am
    37    21    22    1
    38    21    45    1
    39    22    28   ar
    40    22    23   ar
    41    23    24   ar
    42    23    46    1
    43    24    25   ar
    44    24    47    1
    45    25    26    1
    46    25    27   ar
    47    26    48    1
    48    26    49    1
    49    26    50    1
    50    27    28   ar
    51    27    51    1
    52    28    52    1
    53    29    30   ar
    54    29    53    1
    55    30    54    1
@<TRIPOS>SUBSTRUCTURE
     1 ZINC000008416770        1 TEMP              0 ****  ****    0 ROOT


##########                                Name:     oleObject52.pdb
##########                DOCK_Rotatable_Bonds:                  10
##########                         Heavy_Atoms:                  38
##########                    Molecular_Weight:              533.07
##########                DOCK_Rotatable_Bonds:                  10
##########                       Formal_Charge:         0.000300027
##########                     HBond_Acceptors:                   8
##########                        HBond_Donors:                   0
##########                         Heavy_Atoms:                  38
##########                          Grid_Score:          -40.180824
##########                     Grid_vdw_energy:          -39.776005
##########                      Grid_es_energy:           -0.404820
##########           Internal_energy_repulsive:           24.546234

@<TRIPOS>MOLECULE
oleObject52.pdb
 71 74 1 0 0
SMALL
NO_CHARGES


@<TRIPOS>ATOM
      1 C          -9.1153   -3.7462   58.9523 C.ar    1  UNL        -0.0596
      2 C         -10.3410   -3.3565   58.3917 C.ar    1  UNL        -0.0314
      3 C         -10.6084   -1.9943   58.1373 C.ar    1  UNL         0.0800
      4 C          -9.6347   -1.0161   58.4458 C.ar    1  UNL         0.0089
      5 C          -8.4088   -1.4233   59.0148 C.ar    1  UNL        -0.0541
      6 C          -8.1502   -2.7793   59.2649 C.ar    1  UNL        -0.0617
      7 C          -9.9350    0.4653   58.1706 C.3     1  UNL         0.0953
      8 C          -8.8628    1.4009   58.7563 C.ar    1  UNL         0.0684
      9 C          -8.7046    1.5760   60.1541 C.ar    1  UNL        -0.0272
     10 C          -7.6921    2.4406   60.6108 C.ar    1  UNL        -0.0559
     11 C          -6.8777    3.0944   59.6752 C.ar    1  UNL        -0.0435
     12 C          -7.1010    2.8604   58.3103 C.ar    1  UNL         0.0272
     13 N          -8.0664    2.0357   57.8635 N.ar    1  UNL        -0.2587
     14 C          -9.5791    0.8506   61.1696 C.3     1  UNL        -0.0379
     15 N         -10.3059    0.7626   56.7575 N.am    1  UNL        -0.2917
     16 C          -9.4436    0.4107   55.7134 C.2     1  UNL         0.2180
     17 O          -8.5203   -0.3616   55.9106 O.2     1  UNL        -0.2772
     18 C          -9.8963    0.7516   54.2706 C.3     1  UNL         0.0385
     19 C          -9.3660   -0.2723   53.2379 C.3     1  UNL        -0.0289
     20 C          -7.8566   -0.0943   52.9662 C.3     1  UNL        -0.0010
     21 N          -7.5442    1.2807   52.5119 N.4     1  UNL        -0.3010
     22 C          -7.9957    2.3176   53.4656 C.3     1  UNL        -0.0010
     23 C          -9.4952    2.1840   53.8283 C.3     1  UNL        -0.0289
     24 C          -6.1317    1.4867   52.1216 C.3     1  UNL         0.0222
     25 C          -5.8952    1.3976   50.5997 C.3     1  UNL         0.0661
     26 O          -5.0635    2.5081   50.2190 O.3     1  UNL        -0.3432
     27 C          -3.6849    2.4962   50.3060 C.ar    1  UNL         0.0937
     28 C          -2.9009    1.5349   49.6340 C.ar    1  UNL        -0.0289
     29 C          -1.5009    1.5583   49.7490 C.ar    1  UNL        -0.0417
     30 C          -0.8713    2.5395   50.5341 C.ar    1  UNL         0.0537
     31 C          -1.6484    3.4991   51.2047 C.ar    1  UNL        -0.0230
     32 C          -3.0486    3.4782   51.0915 C.ar    1  UNL         0.0721
     33 CL         -3.9838    4.6924   51.9438 Cl      1  UNL        -0.0814
     34 C           0.5585    2.5614   50.6501 C.1     1  UNL         0.0992
     35 N           1.7115    2.5696   50.7383 N.1     1  UNL        -0.1924
     36 C         -11.5865    1.4680   56.5329 C.3     1  UNL         0.0037
     37 O         -11.8135   -1.5840   57.5930 O.3     1  UNL        -0.3490
     38 C         -12.8793   -2.4831   57.2432 C.3     1  UNL         0.0422
     39 H          -8.9156   -4.7961   59.1459 H       1  UNL         0.0624
     40 H         -11.0741   -4.1218   58.1608 H       1  UNL         0.0651
     41 H          -7.6478   -0.6932   59.2684 H       1  UNL         0.0627
     42 H          -7.2020   -3.0794   59.7015 H       1  UNL         0.0623
     43 H         -10.8442    0.6674   58.7476 H       1  UNL         0.0627
     44 H          -7.5346    2.5996   61.6737 H       1  UNL         0.0627
     45 H          -6.0874    3.7646   59.9998 H       1  UNL         0.0639
     46 H          -6.4878    3.3448   57.5515 H       1  UNL         0.0840
     47 H         -10.6423    0.9872   60.9456 H       1  UNL         0.0280
     48 H          -9.4095    1.2201   62.1884 H       1  UNL         0.0280
     49 H          -9.3681   -0.2262   61.1689 H       1  UNL         0.0280
     50 H         -10.9907    0.7218   54.2476 H       1  UNL         0.0402
     51 H          -9.9095   -0.1401   52.2934 H       1  UNL         0.0288
     52 H          -9.5675   -1.2975   53.5694 H       1  UNL         0.0288
     53 H          -7.5640   -0.8283   52.2065 H       1  UNL         0.0431
     54 H          -7.2942   -0.3178   53.8825 H       1  UNL         0.0431
     55 H          -7.8312    3.3138   53.0351 H       1  UNL         0.0431
     56 H          -7.3933    2.2583   54.3808 H       1  UNL         0.0431
     57 H         -10.0863    2.4550   52.9439 H       1  UNL         0.0288
     58 H          -9.7563    2.9083   54.6105 H       1  UNL         0.0288
     59 H          -5.4931    0.7505   52.6273 H       1  UNL         0.0455
     60 H          -5.8093    2.4833   52.4503 H       1  UNL         0.0455
     61 H          -6.8593    1.4479   50.0775 H       1  UNL         0.0586
     62 H          -5.3970    0.4537   50.3480 H       1  UNL         0.0586
     63 H          -3.3625    0.7673   49.0213 H       1  UNL         0.0651
     64 H          -0.9067    0.8128   49.2267 H       1  UNL         0.0638
     65 H          -1.1690    4.2611   51.8136 H       1  UNL         0.0653
     66 H         -11.8486    2.0833   57.4012 H       1  UNL         0.0433
     67 H         -12.3887    0.7411   56.3563 H       1  UNL         0.0433
     68 H         -11.5065    2.1423   55.6724 H       1  UNL         0.0433
     69 H         -13.7267   -1.9146   56.8411 H       1  UNL         0.0535
     70 H         -13.2202   -3.0362   58.1276 H       1  UNL         0.0535
     71 H         -12.5451   -3.1956   56.4786 H       1  UNL         0.0535
@<TRIPOS>BOND
     1     1     2   ar
     2     1     6   ar
     3     1    39    1
     4     2     3   ar
     5     2    40    1
     6     3     4   ar
     7     3    37    1
     8     4     5   ar
     9     4     7    1
    10     5     6   ar
    11     5    41    1
    12     6    42    1
    13     7     8    1
    14     7    15    1
    15     7    43    1
    16     8     9   ar
    17     8    13   ar
    18     9    10   ar
    19     9    14    1
    20    10    11   ar
    21    10    44    1
    22    11    12   ar
    23    11    45    1
    24    12    13   ar
    25    12    46    1
    26    14    47    1
    27    14    48    1
    28    14    49    1
    29    15    16   am
    30    15    36    1
    31    16    17    2
    32    16    18    1
    33    18    19    1
    34    18    23    1
    35    18    50    1
    36    19    20    1
    37    19    51    1
    38    19    52    1
    39    20    21    1
    40    20    53    1
    41    20    54    1
    42    21    22    1
    43    21    24    1
    44    22    23    1
    45    22    55    1
    46    22    56    1
    47    23    57    1
    48    23    58    1
    49    24    25    1
    50    24    59    1
    51    24    60    1
    52    25    26    1
    53    25    61    1
    54    25    62    1
    55    26    27    1
    56    27    28   ar
    57    27    32   ar
    58    28    29   ar
    59    28    63    1
    60    29    30   ar
    61    29    64    1
    62    30    31   ar
    63    30    34    1
    64    31    32   ar
    65    31    65    1
    66    32    33    1
    67    34    35    3
    68    36    66    1
    69    36    67    1
    70    36    68    1
    71    37    38    1
    72    38    69    1
    73    38    70    1
    74    38    71    1
@<TRIPOS>SUBSTRUCTURE
     1 UNL         1 TEMP              0 ****  ****    0 ROOT


##########                                Name:     oleObject70.pdb
##########                DOCK_Rotatable_Bonds:                   9
##########                         Heavy_Atoms:                  35
##########                    Molecular_Weight:             504.458
##########                DOCK_Rotatable_Bonds:                   9
##########                       Formal_Charge:          0.00010002
##########                     HBond_Acceptors:                   6
##########                        HBond_Donors:                   2
##########                         Heavy_Atoms:                  35
##########                          Grid_Score:          -40.039890
##########                     Grid_vdw_energy:          -39.903080
##########                      Grid_es_energy:           -0.136811
##########           Internal_energy_repulsive:           23.030069

@<TRIPOS>MOLECULE
oleObject70.pdb
 62 65 1 0 0
SMALL
NO_CHARGES


@<TRIPOS>ATOM
      1 C          -8.1327   -0.2023   59.3560 C.ar    1  UNL        -0.0620
      2 C          -9.0539   -1.2277   59.0990 C.ar    1  UNL        -0.0590
      3 C          -9.6427   -1.3647   57.8269 C.ar    1  UNL        -0.0456
      4 C          -9.2935   -0.4624   56.7898 C.ar    1  UNL        -0.0187
      5 C          -8.3758    0.5736   57.0692 C.ar    1  UNL        -0.0565
      6 C          -7.7973    0.7022   58.3405 C.ar    1  UNL        -0.0619
      7 C          -9.9161   -0.5810   55.3872 C.3     1  UNL         0.0909
      8 C         -11.3745   -0.0974   55.3079 C.ar    1  UNL         0.0681
      9 C         -12.0866   -0.0692   54.0818 C.ar    1  UNL        -0.0272
     10 C         -13.4169    0.3911   54.0905 C.ar    1  UNL        -0.0559
     11 C         -13.9917    0.7994   55.3026 C.ar    1  UNL        -0.0435
     12 C         -13.2170    0.7314   56.4698 C.ar    1  UNL         0.0272
     13 N         -11.9447    0.2925   56.4719 N.ar    1  UNL        -0.2587
     14 C         -11.4603   -0.5125   52.7642 C.3     1  UNL        -0.0379
     15 N          -9.0322   -0.0602   54.3211 N.am    1  UNL        -0.2987
     16 C          -8.8656    1.2706   53.9578 C.2     1  UNL         0.2437
     17 O          -9.4519    2.1829   54.5146 O.2     1  UNL        -0.2719
     18 C          -7.8975    1.5381   52.8301 C.ar    1  UNL         0.0371
     19 C          -7.1769    0.5010   52.1961 C.ar    1  UNL        -0.0494
     20 C          -6.2853    0.7857   51.1487 C.ar    1  UNL        -0.0570
     21 C          -6.0953    2.1080   50.7146 C.ar    1  UNL        -0.0341
     22 C          -6.8093    3.1448   51.3378 C.ar    1  UNL        -0.0570
     23 C          -7.7004    2.8621   52.3857 C.ar    1  UNL        -0.0494
     24 C          -5.1354    2.4113   49.5765 C.3     1  UNL         0.0208
     25 N          -3.7381    2.2537   49.9994 N.4     1  UNL        -0.3086
     26 C          -3.1471    0.9626   49.6235 C.3     1  UNL         0.0223
     27 C          -1.6416    1.0747   49.4242 C.ar    1  UNL        -0.0154
     28 C          -0.9439    2.1402   50.0247 C.ar    1  UNL        -0.0548
     29 C           0.4454    2.2648   49.8610 C.ar    1  UNL        -0.0431
     30 C           1.1478    1.3214   49.0954 C.ar    1  UNL         0.0421
     31 C           0.4627    0.2535   48.4951 C.ar    1  UNL        -0.0245
     32 C          -0.9274    0.1276   48.6579 C.ar    1  UNL         0.0465
     33 CL         -1.7371   -1.2292   47.8956 Cl      1  UNL        -0.0839
     34 CL          2.8799    1.4750   48.8914 Cl      1  UNL        -0.0843
     35 C         -10.6593   -2.4821   57.6140 C.3     1  UNL        -0.0394
     36 H          -7.6883   -0.1033   60.3421 H       1  UNL         0.0623
     37 H          -9.3155   -1.9160   59.8978 H       1  UNL         0.0626
     38 H          -8.1118    1.2954   56.3035 H       1  UNL         0.0627
     39 H          -7.0937    1.5058   58.5380 H       1  UNL         0.0623
     40 H          -9.9585   -1.6532   55.1736 H       1  UNL         0.0624
     41 H         -13.9966    0.4342   53.1729 H       1  UNL         0.0627
     42 H         -15.0150    1.1609   55.3379 H       1  UNL         0.0639
     43 H         -13.6246    1.0388   57.4318 H       1  UNL         0.0840
     44 H         -10.6319    0.1471   52.4788 H       1  UNL         0.0280
     45 H         -12.1895   -0.4925   51.9447 H       1  UNL         0.0280
     46 H         -11.0752   -1.5372   52.8307 H       1  UNL         0.0280
     47 H          -8.5003   -0.7426   53.7991 H       1  UNL         0.1508
     48 H          -7.2964   -0.5328   52.5034 H       1  UNL         0.0631
     49 H          -5.7426   -0.0249   50.6699 H       1  UNL         0.0626
     50 H          -6.6766    4.1718   51.0088 H       1  UNL         0.0626
     51 H          -8.2415    3.6812   52.8512 H       1  UNL         0.0631
     52 H          -5.3044    3.4383   49.2273 H       1  UNL         0.0479
     53 H          -5.3473    1.7365   48.7370 H       1  UNL         0.0479
     54 H          -3.6822    2.3634   51.0118 H       1  UNL         0.1229
     55 H          -3.6096    0.6048   48.6945 H       1  UNL         0.0480
     56 H          -3.3567    0.2145   50.3988 H       1  UNL         0.0480
     57 H          -1.4793    2.8723   50.6229 H       1  UNL         0.0627
     58 H           0.9752    3.0900   50.3285 H       1  UNL         0.0639
     59 H           1.0087   -0.4775   47.9056 H       1  UNL         0.0654
     60 H         -10.9159   -2.9822   58.5563 H       1  UNL         0.0280
     61 H         -10.2668   -3.2474   56.9331 H       1  UNL         0.0280
     62 H         -11.5938   -2.0934   57.1901 H       1  UNL         0.0280
@<TRIPOS>BOND
     1     1     2   ar
     2     1     6   ar
     3     1    36    1
     4     2     3   ar
     5     2    37    1
     6     3     4   ar
     7     3    35    1
     8     4     5   ar
     9     4     7    1
    10     5     6   ar
    11     5    38    1
    12     6    39    1
    13     7     8    1
    14     7    15    1
    15     7    40    1
    16     8     9   ar
    17     8    13   ar
    18     9    10   ar
    19     9    14    1
    20    10    11   ar
    21    10    41    1
    22    11    12   ar
    23    11    42    1
    24    12    13   ar
    25    12    43    1
    26    14    44    1
    27    14    45    1
    28    14    46    1
    29    15    16   am
    30    15    47    1
    31    16    17    2
    32    16    18    1
    33    18    19   ar
    34    18    23   ar
    35    19    20   ar
    36    19    48    1
    37    20    21   ar
    38    20    49    1
    39    21    22   ar
    40    21    24    1
    41    22    23   ar
    42    22    50    1
    43    23    51    1
    44    24    25    1
    45    24    52    1
    46    24    53    1
    47    25    26    1
    48    25    54    1
    49    26    27    1
    50    26    55    1
    51    26    56    1
    52    27    28   ar
    53    27    32   ar
    54    28    29   ar
    55    28    57    1
    56    29    30   ar
    57    29    58    1
    58    30    31   ar
    59    30    34    1
    60    31    32   ar
    61    31    59    1
    62    32    33    1
    63    35    60    1
    64    35    61    1
    65    35    62    1
@<TRIPOS>SUBSTRUCTURE
     1 UNL         1 TEMP              0 ****  ****    0 ROOT


##########                                Name:    ZINC000508782983
##########                DOCK_Rotatable_Bonds:                   9
##########                         Heavy_Atoms:                  27
##########                    Molecular_Weight:             373.458
##########                DOCK_Rotatable_Bonds:                   9
##########                       Formal_Charge:          -0.0200006
##########                     HBond_Acceptors:                   9
##########                        HBond_Donors:                   2
##########                         Heavy_Atoms:                  27
##########                          Grid_Score:          -39.455044
##########                     Grid_vdw_energy:          -38.945652
##########                      Grid_es_energy:           -0.509391
##########           Internal_energy_repulsive:           16.516329

@<TRIPOS>MOLECULE
ZINC000508782983
 54 56 1 0 0
SMALL
USER_CHARGES


@<TRIPOS>ATOM
      1 C1         -8.6542    0.2448   61.1262 C.3     1  ZINC000508782983   -0.1500
      2 C2         -9.5242   -0.7726   60.3853 C.3     1  ZINC000508782983   -0.1100
      3 C3        -10.6822   -0.0477   59.6966 C.3     1  ZINC000508782983   -0.1500
      4 C4         -8.6796   -1.4972   59.3353 C.3     1  ZINC000508782983    0.1000
      5 N5         -9.5529   -2.2982   58.4739 N.pl3   1  ZINC000508782983   -0.4400
      6 C6        -10.0625   -3.5360   58.7603 C.2     1  ZINC000508782983   -0.0400
      7 C7        -10.8091   -3.9045   57.7018 C.2     1  ZINC000508782983   -0.0300
      8 N8        -10.7568   -2.9185   56.7939 N.2     1  ZINC000508782983   -0.4700
      9 C9        -10.0102   -1.9511   57.2517 C.2     1  ZINC000508782983    0.1700
     10 C10        -9.7018   -0.6636   56.5316 C.3     1  ZINC000508782983    0.2100
     11 N11        -9.2790   -0.9602   55.1606 N.am    1  ZINC000508782983   -0.6900
     12 C12        -9.4253   -0.0318   54.1945 C.2     1  ZINC000508782983    0.5100
     13 O13        -9.9059    1.0502   54.4607 O.2     1  ZINC000508782983   -0.5100
     14 C14        -8.9957   -0.3350   52.7956 C.2     1  ZINC000508782983    0.5100
     15 O15        -9.7504   -0.9120   52.0407 O.2     1  ZINC000508782983   -0.5200
     16 N16        -7.7699    0.0325   52.3725 N.am    1  ZINC000508782983   -0.5800
     17 C17        -7.3295   -0.2505   50.9980 C.3     1  ZINC000508782983    0.0800
     18 C18        -6.7975    1.0470   50.3804 C.3     1  ZINC000508782983    0.0400
     19 N19        -5.7665    1.6167   51.2582 N.3     1  ZINC000508782983   -0.5400
     20 C20        -5.1101    2.7666   50.6219 C.3     1  ZINC000508782983    0.1400
     21 C21        -3.6903    2.4034   50.2707 C.2     1  ZINC000508782983    0.2100
     22 N22        -3.3268    1.4237   49.4891 N.2     1  ZINC000508782983   -0.4900
     23 C23        -1.9885    1.3983   49.4047 C.2     1  ZINC000508782983   -0.0300
     24 C24        -1.5041    2.4003   50.1628 C.2     1  ZINC000508782983   -0.0500
     25 N25        -2.5835    3.0417   50.7083 N.pl3   1  ZINC000508782983   -0.5600
     26 C26        -6.3248    1.9863   52.5657 C.3     1  ZINC000508782983    0.0400
     27 C27        -6.8397    0.7327   53.2712 C.3     1  ZINC000508782983    0.1100
     28 H28        -9.2559    0.7610   61.8742 H       1  ZINC000508782983    0.0700
     29 H29        -7.8292   -0.2717   61.6168 H       1  ZINC000508782983    0.0600
     30 H30        -8.2577    0.9697   60.4153 H       1  ZINC000508782983    0.0600
     31 H31        -9.9208   -1.4976   61.0960 H       1  ZINC000508782983    0.0800
     32 H32       -10.2869    0.7300   59.0431 H       1  ZINC000508782983    0.0600
     33 H33       -11.2575   -0.7608   59.1060 H       1  ZINC000508782983    0.0600
     34 H34       -11.3275    0.4042   60.4500 H       1  ZINC000508782983    0.0600
     35 H35        -8.1453   -0.7648   58.7302 H       1  ZINC000508782983    0.1000
     36 H36        -7.9625   -2.1498   59.8331 H       1  ZINC000508782983    0.0900
     37 H37        -9.8973   -4.1074   59.6618 H       1  ZINC000508782983    0.1800
     38 H38       -11.3544   -4.8312   57.6016 H       1  ZINC000508782983    0.1700
     39 H39       -10.5935   -0.0372   56.5093 H       1  ZINC000508782983    0.0900
     40 H40        -8.9016   -0.1383   57.0529 H       1  ZINC000508782983    0.1100
     41 H41        -8.8937   -1.8247   54.9481 H       1  ZINC000508782983    0.4200
     42 H42        -6.5379   -0.9998   51.0142 H       1  ZINC000508782983    0.0800
     43 H43        -8.1721   -0.6167   50.4115 H       1  ZINC000508782983    0.1400
     44 H44        -6.3655    0.8340   49.4026 H       1  ZINC000508782983    0.0900
     45 H45        -7.6152    1.7592   50.2699 H       1  ZINC000508782983    0.0400
     46 H46        -5.6507    3.0376   49.7151 H       1  ZINC000508782983    0.0900
     47 H47        -5.1093    3.6115   51.3106 H       1  ZINC000508782983    0.0700
     48 H48        -1.4021    0.6971   48.8295 H       1  ZINC000508782983    0.1700
     49 H49        -0.4641    2.6523   50.3091 H       1  ZINC000508782983    0.1800
     50 H50        -2.5579    3.8079   51.3024 H       1  ZINC000508782983    0.4200
     51 H51        -5.5500    2.4546   53.1728 H       1  ZINC000508782983    0.1100
     52 H52        -7.1491    2.6854   52.4248 H       1  ZINC000508782983    0.0400
     53 H53        -7.3566    1.0148   54.1883 H       1  ZINC000508782983    0.1000
     54 H54        -6.0028    0.0752   53.5066 H       1  ZINC000508782983    0.0800
@<TRIPOS>BOND
     1     1     2    1
     2     1    28    1
     3     1    29    1
     4     1    30    1
     5     2     3    1
     6     2     4    1
     7     2    31    1
     8     3    32    1
     9     3    33    1
    10     3    34    1
    11     4     5    1
    12     4    35    1
    13     4    36    1
    14     5     9    1
    15     5     6    1
    16     6     7    2
    17     6    37    1
    18     7     8    1
    19     7    38    1
    20     8     9    2
    21     9    10    1
    22    10    11    1
    23    10    39    1
    24    10    40    1
    25    11    12   am
    26    11    41    1
    27    12    13    2
    28    12    14    1
    29    14    15    2
    30    14    16   am
    31    16    27    1
    32    16    17    1
    33    17    18    1
    34    17    42    1
    35    17    43    1
    36    18    19    1
    37    18    44    1
    38    18    45    1
    39    19    20    1
    40    19    26    1
    41    20    21    1
    42    20    46    1
    43    20    47    1
    44    21    25    1
    45    21    22    2
    46    22    23    1
    47    23    24    2
    48    23    48    1
    49    24    25    1
    50    24    49    1
    51    25    50    1
    52    26    27    1
    53    26    51    1
    54    26    52    1
    55    27    53    1
    56    27    54    1
@<TRIPOS>SUBSTRUCTURE
     1 ZINC000508782983        1 TEMP              0 ****  ****    0 ROOT


##########                                Name:     oleObject42.pdb
##########                DOCK_Rotatable_Bonds:                   9
##########                         Heavy_Atoms:                  36
##########                    Molecular_Weight:             527.493
##########                DOCK_Rotatable_Bonds:                   9
##########                       Formal_Charge:         9.99384e-05
##########                     HBond_Acceptors:                   8
##########                        HBond_Donors:                   0
##########                         Heavy_Atoms:                  36
##########                          Grid_Score:          -38.849602
##########                     Grid_vdw_energy:          -39.050251
##########                      Grid_es_energy:            0.200648
##########           Internal_energy_repulsive:           26.631392

@<TRIPOS>MOLECULE
oleObject42.pdb
 68 71 1 0 0
SMALL
NO_CHARGES


@<TRIPOS>ATOM
      1 C          -9.0746    0.0713   58.1185 C.ar    1  UNL        -0.0435
      2 C          -9.5571   -1.0407   57.4133 C.ar    1  UNL        -0.0559
      3 C         -10.1590   -0.8476   56.1556 C.ar    1  UNL        -0.0272
      4 C         -10.2543    0.4732   55.6494 C.ar    1  UNL         0.0699
      5 N          -9.7845    1.5378   56.3408 N.ar    1  UNL        -0.2586
      6 C          -9.2100    1.3430   57.5425 C.ar    1  UNL         0.0272
      7 C         -10.8958    0.7703   54.2832 C.3     1  UNL         0.1101
      8 C         -12.4151    0.5134   54.2552 C.ar    1  UNL         0.0699
      9 C         -13.0736    0.1124   53.0655 C.ar    1  UNL        -0.0272
     10 C         -14.4652   -0.0951   53.1067 C.ar    1  UNL        -0.0559
     11 C         -15.1504    0.1016   54.3142 C.ar    1  UNL        -0.0435
     12 C         -14.4208    0.5020   55.4430 C.ar    1  UNL         0.0272
     13 N         -13.0904    0.7042   55.4131 N.ar    1  UNL        -0.2586
     14 C         -12.3253   -0.0998   51.7538 C.3     1  UNL        -0.0379
     15 N         -10.4864    2.0907   53.7291 N.am    1  UNL        -0.2902
     16 C          -9.2428    2.3124   53.1360 C.2     1  UNL         0.2180
     17 O          -9.0490    3.3163   52.4702 O.2     1  UNL        -0.2772
     18 C          -8.2693    1.1103   53.0674 C.3     1  UNL         0.0385
     19 C          -6.8098    1.5514   53.3332 C.3     1  UNL        -0.0289
     20 C          -6.1955    2.2964   52.1288 C.3     1  UNL        -0.0010
     21 N          -6.2829    1.4902   50.8920 N.4     1  UNL        -0.3010
     22 C          -7.6577    1.0640   50.5490 C.3     1  UNL        -0.0010
     23 C          -8.3563    0.3388   51.7244 C.3     1  UNL        -0.0289
     24 C          -5.5249    2.0525   49.7523 C.3     1  UNL         0.0222
     25 C          -4.0180    2.2462   50.0334 C.3     1  UNL         0.0661
     26 O          -3.3077    1.1847   49.3766 O.3     1  UNL        -0.3432
     27 C          -1.9359    1.2297   49.3331 C.ar    1  UNL         0.0937
     28 C          -1.2603    2.1992   50.0933 C.ar    1  UNL        -0.0288
     29 C           0.1425    2.2654   50.0621 C.ar    1  UNL        -0.0408
     30 C           0.8687    1.3629   49.2672 C.ar    1  UNL         0.0422
     31 C           0.1958    0.3958   48.5018 C.ar    1  UNL        -0.0221
     32 C          -1.2073    0.3277   48.5318 C.ar    1  UNL         0.0723
     33 CL         -2.0236   -0.8854   47.5633 Cl      1  UNL        -0.0814
     34 CL          2.6169    1.4454   49.2279 Cl      1  UNL        -0.0843
     35 C         -11.4015    3.2222   53.9807 C.3     1  UNL         0.0038
     36 C         -10.6812   -2.0553   55.3849 C.3     1  UNL        -0.0379
     37 H          -8.6047   -0.0490   59.0902 H       1  UNL         0.0639
     38 H          -9.4625   -2.0362   57.8379 H       1  UNL         0.0627
     39 H          -8.8477    2.2324   58.0564 H       1  UNL         0.0840
     40 H         -10.4714    0.0271   53.6033 H       1  UNL         0.0643
     41 H         -15.0082   -0.4048   52.2182 H       1  UNL         0.0627
     42 H         -16.2237   -0.0526   54.3749 H       1  UNL         0.0639
     43 H         -14.9144    0.6659   56.4001 H       1  UNL         0.0840
     44 H         -11.8775    0.8365   51.3983 H       1  UNL         0.0280
     45 H         -12.9928   -0.4637   50.9628 H       1  UNL         0.0280
     46 H         -11.5242   -0.8402   51.8683 H       1  UNL         0.0280
     47 H          -8.5493    0.3928   53.8455 H       1  UNL         0.0402
     48 H          -6.2011    0.6625   53.5437 H       1  UNL         0.0288
     49 H          -6.7580    2.1863   54.2257 H       1  UNL         0.0288
     50 H          -5.1450    2.5221   52.3530 H       1  UNL         0.0431
     51 H          -6.7211    3.2506   51.9953 H       1  UNL         0.0431
     52 H          -7.6314    0.3862   49.6861 H       1  UNL         0.0431
     53 H          -8.2576    1.9349   50.2599 H       1  UNL         0.0431
     54 H          -7.8783   -0.6409   51.8541 H       1  UNL         0.0288
     55 H          -9.4060    0.1420   51.4714 H       1  UNL         0.0288
     56 H          -5.9556    3.0228   49.4738 H       1  UNL         0.0455
     57 H          -5.6345    1.3901   48.8840 H       1  UNL         0.0455
     58 H          -3.8285    2.2114   51.1132 H       1  UNL         0.0586
     59 H          -3.6814    3.2169   49.6490 H       1  UNL         0.0586
     60 H          -1.8243    2.8968   50.7056 H       1  UNL         0.0652
     61 H           0.6638    3.0144   50.6516 H       1  UNL         0.0639
     62 H           0.7603   -0.2986   47.8860 H       1  UNL         0.0655
     63 H         -12.4417    2.8758   54.0205 H       1  UNL         0.0433
     64 H         -11.3147    3.9610   53.1740 H       1  UNL         0.0433
     65 H         -11.1437    3.7005   54.9338 H       1  UNL         0.0433
     66 H         -10.4812   -2.9924   55.9193 H       1  UNL         0.0280
     67 H         -10.2040   -2.1358   54.4007 H       1  UNL         0.0280
     68 H         -11.7658   -1.9904   55.2358 H       1  UNL         0.0280
@<TRIPOS>BOND
     1     1     2   ar
     2     1     6   ar
     3     1    37    1
     4     2     3   ar
     5     2    38    1
     6     3     4   ar
     7     3    36    1
     8     4     5   ar
     9     4     7    1
    10     5     6   ar
    11     6    39    1
    12     7     8    1
    13     7    15    1
    14     7    40    1
    15     8     9   ar
    16     8    13   ar
    17     9    10   ar
    18     9    14    1
    19    10    11   ar
    20    10    41    1
    21    11    12   ar
    22    11    42    1
    23    12    13   ar
    24    12    43    1
    25    14    44    1
    26    14    45    1
    27    14    46    1
    28    15    16   am
    29    15    35    1
    30    16    17    2
    31    16    18    1
    32    18    19    1
    33    18    23    1
    34    18    47    1
    35    19    20    1
    36    19    48    1
    37    19    49    1
    38    20    21    1
    39    20    50    1
    40    20    51    1
    41    21    22    1
    42    21    24    1
    43    22    23    1
    44    22    52    1
    45    22    53    1
    46    23    54    1
    47    23    55    1
    48    24    25    1
    49    24    56    1
    50    24    57    1
    51    25    26    1
    52    25    58    1
    53    25    59    1
    54    26    27    1
    55    27    28   ar
    56    27    32   ar
    57    28    29   ar
    58    28    60    1
    59    29    30   ar
    60    29    61    1
    61    30    31   ar
    62    30    34    1
    63    31    32   ar
    64    31    62    1
    65    32    33    1
    66    35    63    1
    67    35    64    1
    68    35    65    1
    69    36    66    1
    70    36    67    1
    71    36    68    1
@<TRIPOS>SUBSTRUCTURE
     1 UNL         1 TEMP              0 ****  ****    0 ROOT


##########                                Name:    ZINC000740930783
##########                DOCK_Rotatable_Bonds:                  11
##########                         Heavy_Atoms:                  27
##########                    Molecular_Weight:             413.257
##########                DOCK_Rotatable_Bonds:                  11
##########                       Formal_Charge:          -0.0100004
##########                     HBond_Acceptors:                   9
##########                        HBond_Donors:                   4
##########                         Heavy_Atoms:                  27
##########                          Grid_Score:          -38.781105
##########                     Grid_vdw_energy:          -37.035522
##########                      Grid_es_energy:           -1.745582
##########           Internal_energy_repulsive:           11.434813

@<TRIPOS>MOLECULE
ZINC000740930783
 45 46 1 0 0
SMALL
USER_CHARGES


@<TRIPOS>ATOM
      1 C1        -10.5857   -3.4059   56.9424 C.3     1  ZINC000740930783    0.0200
      2 O2        -10.8953   -2.0112   56.9052 O.3     1  ZINC000740930783   -0.3000
      3 C3         -9.9209   -1.1741   56.4588 C.ar    1  ZINC000740930783    0.1200
      4 C4         -9.6479   -1.0908   55.1073 C.ar    1  ZINC000740930783   -0.1400
      5 C5         -8.6464   -0.2293   54.6513 C.ar    1  ZINC000740930783   -0.0800
      6 C6         -8.3513   -0.1365   53.2080 C.2     1  ZINC000740930783    0.5600
      7 O7         -9.2445   -0.2753   52.3948 O.2     1  ZINC000740930783   -0.5300
      8 N8         -7.0919    0.1021   52.7916 N.am    1  ZINC000740930783   -0.7200
      9 C9         -6.7987    0.1925   51.3591 C.3     1  ZINC000740930783    0.0900
     10 C10        -6.8699    1.6550   50.9152 C.3     1  ZINC000740930783    0.1400
     11 H11        -7.5799    2.1915   51.5445 H       1  ZINC000740930783    0.1200
     12 O12        -7.2974    1.7191   49.5532 O.3     1  ZINC000740930783   -0.5500
     13 C13        -5.5075    2.2860   51.0444 C.ar    1  ZINC000740930783   -0.1100
     14 C14        -4.4746    1.8745   50.2237 C.ar    1  ZINC000740930783   -0.1000
     15 C15        -3.2246    2.4534   50.3421 C.ar    1  ZINC000740930783   -0.1100
     16 C16        -3.0072    3.4434   51.2817 C.ar    1  ZINC000740930783   -0.1000
     17 C17        -4.0395    3.8559   52.1033 C.ar    1  ZINC000740930783   -0.1100
     18 C18        -5.2919    3.2815   51.9810 C.ar    1  ZINC000740930783   -0.0300
     19 Cl19       -6.5890    3.7989   53.0123 Cl      1  ZINC000740930783   -0.0600
     20 C20        -7.9254    0.5440   55.5641 C.ar    1  ZINC000740930783   -0.1000
     21 C21        -8.2028    0.4563   56.9124 C.ar    1  ZINC000740930783   -0.0200
     22 Cl22       -7.3062    1.4184   58.0456 Cl      1  ZINC000740930783   -0.0300
     23 C23        -9.2017   -0.3961   57.3646 C.ar    1  ZINC000740930783    0.0900
     24 O24        -9.4715   -0.4792   58.6931 O.3     1  ZINC000740930783   -0.2900
     25 C25        -8.5673   -1.2445   59.4922 C.3     1  ZINC000740930783    0.0400
     26 C26        -8.9137   -1.0714   60.9486 C.2     1  ZINC000740930783    0.5200
     27 N27        -8.0187   -0.5222   61.7935 N.am    1  ZINC000740930783   -0.8500
     28 O28        -9.9978   -1.4263   61.3603 O.2     1  ZINC000740930783   -0.5100
     29 H29       -10.3410   -3.7507   55.9378 H       1  ZINC000740930783    0.0600
     30 H30        -9.7331   -3.5713   57.6010 H       1  ZINC000740930783    0.0600
     31 H31       -11.4469   -3.9593   57.3169 H       1  ZINC000740930783    0.1100
     32 H32       -10.2070   -1.6904   54.4044 H       1  ZINC000740930783    0.1600
     33 H33        -6.3796    0.2140   53.4404 H       1  ZINC000740930783    0.4100
     34 H34        -5.7989   -0.1970   51.1676 H       1  ZINC000740930783    0.0900
     35 H35        -7.5297   -0.3926   50.8010 H       1  ZINC000740930783    0.0800
     36 H36        -7.0960    2.5583   49.1168 H       1  ZINC000740930783    0.3800
     37 H37        -4.6438    1.1004   49.4899 H       1  ZINC000740930783    0.1300
     38 H38        -2.4177    2.1314   49.7005 H       1  ZINC000740930783    0.1300
     39 H39        -2.0303    3.8948   51.3743 H       1  ZINC000740930783    0.1400
     40 H40        -3.8694    4.6296   52.8373 H       1  ZINC000740930783    0.1400
     41 H41        -7.1507    1.2102   55.2143 H       1  ZINC000740930783    0.1500
     42 H42        -8.6463   -2.2978   59.2227 H       1  ZINC000740930783    0.0900
     43 H43        -7.5478   -0.9004   59.3178 H       1  ZINC000740930783    0.0900
     44 H44        -8.2420   -0.4097   62.7307 H       1  ZINC000740930783    0.4000
     45 H45        -7.1511   -0.2395   61.4643 H       1  ZINC000740930783    0.4100
@<TRIPOS>BOND
     1     1     2    1
     2     1    29    1
     3     1    30    1
     4     1    31    1
     5     2     3    1
     6     3    23   ar
     7     3     4   ar
     8     4     5   ar
     9     4    32    1
    10     5     6    1
    11     5    20   ar
    12     6     7    2
    13     6     8   am
    14     8     9    1
    15     8    33    1
    16     9    10    1
    17     9    34    1
    18     9    35    1
    19    10    11    1
    20    10    12    1
    21    10    13    1
    22    12    36    1
    23    13    18   ar
    24    13    14   ar
    25    14    15   ar
    26    14    37    1
    27    15    16   ar
    28    15    38    1
    29    16    17   ar
    30    16    39    1
    31    17    18   ar
    32    17    40    1
    33    18    19    1
    34    20    21   ar
    35    20    41    1
    36    21    22    1
    37    21    23   ar
    38    23    24    1
    39    24    25    1
    40    25    26    1
    41    25    42    1
    42    25    43    1
    43    26    27   am
    44    26    28    2
    45    27    44    1
    46    27    45    1
@<TRIPOS>SUBSTRUCTURE
     1 ZINC000740930783        1 TEMP              0 ****  ****    0 ROOT


##########                                Name:    ZINC001596273020
##########                DOCK_Rotatable_Bonds:                  11
##########                         Heavy_Atoms:                  25
##########                    Molecular_Weight:             355.478
##########                DOCK_Rotatable_Bonds:                  11
##########                       Formal_Charge:          -0.0499996
##########                     HBond_Acceptors:                   7
##########                        HBond_Donors:                   2
##########                         Heavy_Atoms:                  25
##########                          Grid_Score:          -38.558723
##########                     Grid_vdw_energy:          -35.789288
##########                      Grid_es_energy:           -2.769434
##########           Internal_energy_repulsive:           27.448027

@<TRIPOS>MOLECULE
ZINC001596273020
 58 59 1 0 0
SMALL
USER_CHARGES


@<TRIPOS>ATOM
      1 C1         -6.9543    3.9723   50.8478 C.3     1  ZINC001596273020   -0.1900
      2 C2         -6.9494    3.0472   49.6292 C.3     1  ZINC001596273020   -0.0200
      3 N3         -6.7040    1.6656   50.0641 N.4     1  ZINC001596273020   -0.3900
      4 H4         -6.7009    1.0556   49.2604 H       1  ZINC001596273020    0.4300
      5 C5         -5.4029    1.5894   50.7418 C.3     1  ZINC001596273020   -0.0100
      6 C6         -4.2986    2.0226   49.7756 C.3     1  ZINC001596273020   -0.1900
      7 C7         -7.7643    1.2485   50.9912 C.3     1  ZINC001596273020   -0.0100
      8 C8         -7.5064   -0.1889   51.4477 C.3     1  ZINC001596273020    0.0300
      9 O9         -8.7397   -0.7904   51.8467 O.3     1  ZINC001596273020   -0.3900
     10 C10        -9.2567   -0.2914   53.0820 C.3     1  ZINC001596273020    0.0500
     11 C11       -10.6688   -0.8380   53.3017 C.3     1  ZINC001596273020    0.1400
     12 N12       -10.9837   -0.8166   54.7323 N.am    1  ZINC001596273020   -0.7500
     13 C13       -11.0581   -1.9713   55.4233 C.2     1  ZINC001596273020    0.7200
     14 O14       -10.8655   -3.0310   54.8590 O.2     1  ZINC001596273020   -0.6000
     15 N15       -11.3462   -1.9515   56.7397 N.am    1  ZINC001596273020   -0.6300
     16 C16       -11.4628   -3.1079   57.6622 C.3     1  ZINC001596273020    0.1100
     17 C17       -10.7595   -2.6128   58.9588 C.3     1  ZINC001596273020   -0.0800
     18 H18       -11.2392   -3.0581   59.8305 H       1  ZINC001596273020    0.1200
     19 C19        -9.3116   -3.0556   58.8897 C.3     1  ZINC001596273020   -0.1000
     20 C20        -8.3695   -2.1155   59.6285 C.3     1  ZINC001596273020   -0.1200
     21 C21        -8.5095   -0.7186   59.0091 C.3     1  ZINC001596273020   -0.1200
     22 C22        -9.8980   -0.1947   59.3618 C.3     1  ZINC001596273020   -0.0800
     23 C23       -10.9965   -1.1187   58.9532 C.3     1  ZINC001596273020   -0.1400
     24 C24       -12.1123   -0.8894   59.9397 C.2     1  ZINC001596273020    0.5000
     25 O25       -12.1660    0.1543   60.5677 O.co2   1  ZINC001596273020   -0.6900
     26 O26       -12.9615   -1.7476   60.1100 O.co2   1  ZINC001596273020   -0.6900
     27 C27       -11.6119   -0.7685   57.5940 C.3     1  ZINC001596273020    0.1600
     28 H28        -7.8088    3.7342   51.4812 H       1  ZINC001596273020    0.0800
     29 H29        -6.0330    3.8330   51.4134 H       1  ZINC001596273020    0.0800
     30 H30        -7.0246    5.0085   50.5171 H       1  ZINC001596273020    0.1000
     31 H31        -7.9148    3.1037   49.1262 H       1  ZINC001596273020    0.1300
     32 H32        -6.1626    3.3567   48.9412 H       1  ZINC001596273020    0.1300
     33 H33        -5.4059    2.2489   51.6095 H       1  ZINC001596273020    0.1300
     34 H34        -5.2212    0.5644   51.0651 H       1  ZINC001596273020    0.1300
     35 H35        -4.2222    1.2998   48.9633 H       1  ZINC001596273020    0.0800
     36 H36        -4.5378    3.0044   49.3671 H       1  ZINC001596273020    0.0800
     37 H37        -3.3488    2.0723   50.3082 H       1  ZINC001596273020    0.1000
     38 H38        -7.7699    1.9095   51.8579 H       1  ZINC001596273020    0.1400
     39 H39        -8.7294    1.3020   50.4872 H       1  ZINC001596273020    0.1400
     40 H40        -7.0734   -0.7590   50.6257 H       1  ZINC001596273020    0.1000
     41 H41        -6.8151   -0.1841   52.2903 H       1  ZINC001596273020    0.0700
     42 H42        -8.6121   -0.6105   53.9010 H       1  ZINC001596273020    0.0700
     43 H43        -9.2897    0.7976   53.0486 H       1  ZINC001596273020    0.0700
     44 H44       -11.3859   -0.2190   52.7625 H       1  ZINC001596273020    0.0900
     45 H45       -10.7233   -1.8622   52.9329 H       1  ZINC001596273020    0.0700
     46 H46       -11.1384    0.0287   55.1822 H       1  ZINC001596273020    0.3900
     47 H47       -12.5100   -3.3384   57.8579 H       1  ZINC001596273020    0.0700
     48 H48       -10.9473   -3.9774   57.2543 H       1  ZINC001596273020    0.0600
     49 H49        -9.2275   -4.0512   59.3254 H       1  ZINC001596273020    0.0500
     50 H50        -9.0092   -3.1056   57.8437 H       1  ZINC001596273020    0.0400
     51 H51        -8.6387   -2.0790   60.6841 H       1  ZINC001596273020    0.0700
     52 H52        -7.3425   -2.4645   59.5216 H       1  ZINC001596273020    0.0500
     53 H53        -7.7486   -0.0544   59.4191 H       1  ZINC001596273020    0.0600
     54 H54        -8.4021   -0.7817   57.9263 H       1  ZINC001596273020    0.0500
     55 H55        -9.9507   -0.0412   60.4397 H       1  ZINC001596273020    0.0600
     56 H56       -10.0459    0.7651   58.8667 H       1  ZINC001596273020    0.0600
     57 H57       -11.1355    0.1195   57.1788 H       1  ZINC001596273020    0.0700
     58 H58       -12.6864   -0.6135   57.6922 H       1  ZINC001596273020    0.0700
@<TRIPOS>BOND
     1     1     2    1
     2     1    28    1
     3     1    29    1
     4     1    30    1
     5     2     3    1
     6     2    31    1
     7     2    32    1
     8     3     4    1
     9     3     5    1
    10     3     7    1
    11     5     6    1
    12     5    33    1
    13     5    34    1
    14     6    35    1
    15     6    36    1
    16     6    37    1
    17     7     8    1
    18     7    38    1
    19     7    39    1
    20     8     9    1
    21     8    40    1
    22     8    41    1
    23     9    10    1
    24    10    11    1
    25    10    42    1
    26    10    43    1
    27    11    12    1
    28    11    44    1
    29    11    45    1
    30    12    13   am
    31    12    46    1
    32    13    14    2
    33    13    15   am
    34    15    27    1
    35    15    16    1
    36    16    17    1
    37    16    47    1
    38    16    48    1
    39    17    18    1
    40    17    23    1
    41    17    19    1
    42    19    20    1
    43    19    49    1
    44    19    50    1
    45    20    21    1
    46    20    51    1
    47    20    52    1
    48    21    22    1
    49    21    53    1
    50    21    54    1
    51    22    23    1
    52    22    55    1
    53    22    56    1
    54    23    24    1
    55    23    27    1
    56    24    25   ar
    57    24    26   ar
    58    27    57    1
    59    27    58    1
@<TRIPOS>SUBSTRUCTURE
     1 ZINC001596273020        1 TEMP              0 ****  ****    0 ROOT


##########                                Name:     oleObject27.pdb
##########                DOCK_Rotatable_Bonds:                   9
##########                         Heavy_Atoms:                  35
##########                    Molecular_Weight:             513.466
##########                DOCK_Rotatable_Bonds:                   9
##########                       Formal_Charge:         0.000199873
##########                     HBond_Acceptors:                   8
##########                        HBond_Donors:                   1
##########                         Heavy_Atoms:                  35
##########                          Grid_Score:          -38.408215
##########                     Grid_vdw_energy:          -38.479465
##########                      Grid_es_energy:            0.071251
##########           Internal_energy_repulsive:           14.578840

@<TRIPOS>MOLECULE
oleObject27.pdb
 65 68 1 0 0
SMALL
NO_CHARGES


@<TRIPOS>ATOM
      1 C         -11.6444   -3.5616   57.2787 C.ar    1  UNL        -0.0620
      2 C         -12.4692   -2.7210   56.5173 C.ar    1  UNL        -0.0590
      3 C         -12.0384   -1.4317   56.1484 C.ar    1  UNL        -0.0456
      4 C         -10.7547   -0.9807   56.5447 C.ar    1  UNL        -0.0187
      5 C          -9.9400   -1.8344   57.3207 C.ar    1  UNL        -0.0565
      6 C         -10.3796   -3.1160   57.6836 C.ar    1  UNL        -0.0619
      7 C         -10.2502    0.4190   56.1593 C.3     1  UNL         0.0921
      8 C          -9.3875    1.0576   57.2523 C.ar    1  UNL         0.0681
      9 C          -9.9457    1.8442   58.2910 C.ar    1  UNL        -0.0272
     10 C          -9.0760    2.4029   59.2465 C.ar    1  UNL        -0.0559
     11 C          -7.6972    2.1728   59.1335 C.ar    1  UNL        -0.0435
     12 C          -7.2308    1.3949   58.0633 C.ar    1  UNL         0.0272
     13 N          -8.0540    0.8558   57.1446 N.ar    1  UNL        -0.2587
     14 C         -11.4427    2.1118   58.3963 C.3     1  UNL        -0.0379
     15 N          -9.5392    0.4374   54.8727 N.am    1  UNL        -0.2865
     16 C          -9.3761    1.5696   54.0951 C.2     1  UNL         0.3014
     17 O          -9.8266    2.6519   54.4322 O.2     1  UNL        -0.2541
     18 N          -8.6703    1.3854   52.9046 N.am    1  UNL        -0.2833
     19 C          -8.4079    2.5013   51.9552 C.3     1  UNL         0.0284
     20 C          -7.9467    2.0636   50.5437 C.3     1  UNL         0.0142
     21 N          -6.8996    1.0281   50.5874 N.4     1  UNL        -0.2979
     22 C          -7.4145   -0.1559   51.3031 C.3     1  UNL         0.0142
     23 C          -7.8270    0.1739   52.7562 C.3     1  UNL         0.0284
     24 C          -5.5904    1.5452   51.0536 C.3     1  UNL         0.0223
     25 C          -5.0528    2.7059   50.1925 C.3     1  UNL         0.0661
     26 O          -3.6806    2.9244   50.5644 O.3     1  UNL        -0.3432
     27 C          -2.6237    2.1989   50.0492 C.ar    1  UNL         0.0937
     28 C          -2.8212    1.0834   49.2074 C.ar    1  UNL        -0.0288
     29 C          -1.7182    0.3732   48.7048 C.ar    1  UNL        -0.0408
     30 C          -0.4140    0.7713   49.0385 C.ar    1  UNL         0.0422
     31 C          -0.2093    1.8798   49.8747 C.ar    1  UNL        -0.0221
     32 C          -1.3103    2.5920   50.3788 C.ar    1  UNL         0.0723
     33 CL         -1.0202    3.9722   51.4213 Cl      1  UNL        -0.0814
     34 CL          0.9584   -0.1158   48.4104 Cl      1  UNL        -0.0843
     35 C         -12.9815   -0.5524   55.3339 C.3     1  UNL        -0.0394
     36 H         -11.9877   -4.5533   57.5588 H       1  UNL         0.0623
     37 H         -13.4508   -3.0749   56.2148 H       1  UNL         0.0626
     38 H          -8.9604   -1.5048   57.6538 H       1  UNL         0.0627
     39 H          -9.7407   -3.7611   58.2797 H       1  UNL         0.0623
     40 H         -11.1359    1.0453   56.0181 H       1  UNL         0.0625
     41 H          -9.4609    3.0096   60.0614 H       1  UNL         0.0627
     42 H          -7.0036    2.5926   59.8560 H       1  UNL         0.0639
     43 H          -6.1671    1.1970   57.9367 H       1  UNL         0.0840
     44 H         -11.8391    2.5171   57.4568 H       1  UNL         0.0280
     45 H         -11.6694    2.8388   59.1863 H       1  UNL         0.0280
     46 H         -11.9923    1.1913   58.6289 H       1  UNL         0.0280
     47 H          -9.1842   -0.4387   54.5161 H       1  UNL         0.1521
     48 H          -7.6376    3.1466   52.3965 H       1  UNL         0.0484
     49 H          -9.3155    3.1045   51.8300 H       1  UNL         0.0484
     50 H          -7.5945    2.9404   49.9852 H       1  UNL         0.0447
     51 H          -8.8176    1.6659   50.0064 H       1  UNL         0.0447
     52 H          -6.6797   -0.9694   51.3045 H       1  UNL         0.0447
     53 H          -8.3006   -0.5308   50.7747 H       1  UNL         0.0447
     54 H          -6.9222    0.3155   53.3606 H       1  UNL         0.0484
     55 H          -8.3620   -0.6931   53.1646 H       1  UNL         0.0484
     56 H          -4.8429    0.7420   51.0699 H       1  UNL         0.0455
     57 H          -5.6972    1.9132   52.0822 H       1  UNL         0.0455
     58 H          -5.6478    3.6085   50.3818 H       1  UNL         0.0586
     59 H          -5.1159    2.4480   49.1284 H       1  UNL         0.0586
     60 H          -3.8203    0.7585   48.9360 H       1  UNL         0.0652
     61 H          -1.8755   -0.4847   48.0572 H       1  UNL         0.0639
     62 H           0.8003    2.1871   50.1324 H       1  UNL         0.0655
     63 H         -13.9647   -1.0219   55.2055 H       1  UNL         0.0280
     64 H         -12.5767   -0.3625   54.3320 H       1  UNL         0.0280
     65 H         -13.1458    0.4139   55.8264 H       1  UNL         0.0280
@<TRIPOS>BOND
     1     1     2   ar
     2     1     6   ar
     3     1    36    1
     4     2     3   ar
     5     2    37    1
     6     3     4   ar
     7     3    35    1
     8     4     5   ar
     9     4     7    1
    10     5     6   ar
    11     5    38    1
    12     6    39    1
    13     7     8    1
    14     7    15    1
    15     7    40    1
    16     8     9   ar
    17     8    13   ar
    18     9    10   ar
    19     9    14    1
    20    10    11   ar
    21    10    41    1
    22    11    12   ar
    23    11    42    1
    24    12    13   ar
    25    12    43    1
    26    14    44    1
    27    14    45    1
    28    14    46    1
    29    15    16   am
    30    15    47    1
    31    16    17    2
    32    16    18   am
    33    18    19    1
    34    18    23    1
    35    19    20    1
    36    19    48    1
    37    19    49    1
    38    20    21    1
    39    20    50    1
    40    20    51    1
    41    21    22    1
    42    21    24    1
    43    22    23    1
    44    22    52    1
    45    22    53    1
    46    23    54    1
    47    23    55    1
    48    24    25    1
    49    24    56    1
    50    24    57    1
    51    25    26    1
    52    25    58    1
    53    25    59    1
    54    26    27    1
    55    27    28   ar
    56    27    32   ar
    57    28    29   ar
    58    28    60    1
    59    29    30   ar
    60    29    61    1
    61    30    31   ar
    62    30    34    1
    63    31    32   ar
    64    31    62    1
    65    32    33    1
    66    35    63    1
    67    35    64    1
    68    35    65    1
@<TRIPOS>SUBSTRUCTURE
     1 UNL         1 TEMP              0 ****  ****    0 ROOT


##########                                Name:    ZINC000912668252
##########                DOCK_Rotatable_Bonds:                  10
##########                         Heavy_Atoms:                  30
##########                    Molecular_Weight:             411.433
##########                DOCK_Rotatable_Bonds:                  10
##########                       Formal_Charge:           0.0199993
##########                     HBond_Acceptors:                   8
##########                        HBond_Donors:                   2
##########                         Heavy_Atoms:                  30
##########                          Grid_Score:          -38.346500
##########                     Grid_vdw_energy:          -37.548485
##########                      Grid_es_energy:           -0.798017
##########           Internal_energy_repulsive:           12.540169

@<TRIPOS>MOLECULE
ZINC000912668252
 52 54 1 0 0
SMALL
USER_CHARGES


@<TRIPOS>ATOM
      1 C1        -10.2393    0.6073   57.6158 C.3     1  ZINC000912668252   -0.1700
      2 C2         -9.3407   -0.4439   56.9615 C.3     1  ZINC000912668252    0.1100
      3 N3        -10.0135   -1.7450   56.9859 N.am    1  ZINC000912668252   -0.6100
      4 C4         -9.8529   -2.6312   58.1413 C.3     1  ZINC000912668252    0.1000
      5 C5        -10.9836   -2.3768   59.1403 C.3     1  ZINC000912668252   -0.1800
      6 C6        -10.7804   -2.1267   55.9454 C.2     1  ZINC000912668252    0.5600
      7 O7        -11.3386   -3.2062   55.9656 O.2     1  ZINC000912668252   -0.5300
      8 C8        -10.9426   -1.2322   54.7792 C.ar    1  ZINC000912668252   -0.1100
      9 C9        -12.0920   -0.4509   54.6505 C.ar    1  ZINC000912668252   -0.1100
     10 C10       -12.2407    0.3836   53.5612 C.ar    1  ZINC000912668252   -0.1000
     11 C11       -11.2542    0.4491   52.5952 C.ar    1  ZINC000912668252   -0.1200
     12 C12       -10.1059   -0.3249   52.7143 C.ar    1  ZINC000912668252    0.1400
     13 N13        -9.1098   -0.2546   51.7336 N.am    1  ZINC000912668252   -0.6700
     14 C14        -7.8503    0.0821   52.0753 C.2     1  ZINC000912668252    0.5200
     15 O15        -7.5800    0.3241   53.2326 O.2     1  ZINC000912668252   -0.4900
     16 C16        -6.7778    0.1578   51.0193 C.3     1  ZINC000912668252    0.0500
     17 O17        -5.8635    1.2408   51.3348 O.3     1  ZINC000912668252   -0.3300
     18 C18        -5.3221    1.9074   50.2953 C.2     1  ZINC000912668252    0.5400
     19 O19        -6.0349    2.5441   49.5438 O.2     1  ZINC000912668252   -0.4800
     20 C20        -3.8711    1.8643   50.0707 C.2     1  ZINC000912668252    0.0400
     21 C21        -2.9577    2.6812   50.6596 C.2     1  ZINC000912668252   -0.0900
     22 C22        -1.6780    2.3150   50.1782 C.ar    1  ZINC000912668252   -0.1000
     23 C23        -0.3846    2.7936   50.4251 C.ar    1  ZINC000912668252   -0.0900
     24 C24         0.6835    2.2221   49.7927 C.ar    1  ZINC000912668252    0.0700
     25 F25         1.9299    2.6851   50.0322 F       1  ZINC000912668252   -0.1400
     26 C26         0.4985    1.1675   48.9050 C.ar    1  ZINC000912668252   -0.1100
     27 C27        -0.7636    0.6810   48.6466 C.ar    1  ZINC000912668252   -0.1000
     28 C28        -1.8669    1.2472   49.2788 C.ar    1  ZINC000912668252    0.1100
     29 N29        -3.2161    0.9833   49.2316 N.pl3   1  ZINC000912668252   -0.5600
     30 C30        -9.9447   -1.1621   53.8070 C.ar    1  ZINC000912668252   -0.0700
     31 H31        -9.7387    1.5755   57.5976 H       1  ZINC000912668252    0.0700
     32 H32       -11.1791    0.6739   57.0676 H       1  ZINC000912668252    0.0600
     33 H33       -10.4404    0.3217   58.6483 H       1  ZINC000912668252    0.0600
     34 H34        -9.1397   -0.1581   55.9289 H       1  ZINC000912668252    0.0800
     35 H35        -8.4009   -0.5104   57.5095 H       1  ZINC000912668252    0.0900
     36 H36        -9.8870   -3.6692   57.8106 H       1  ZINC000912668252    0.0900
     37 H37        -8.8938   -2.4337   58.6202 H       1  ZINC000912668252    0.0800
     38 H38       -10.7412   -1.5058   59.7492 H       1  ZINC000912668252    0.0600
     39 H39       -11.9122   -2.1949   58.5993 H       1  ZINC000912668252    0.0700
     40 H40       -11.1027   -3.2484   59.7840 H       1  ZINC000912668252    0.0700
     41 H41       -12.8651   -0.4995   55.4030 H       1  ZINC000912668252    0.1400
     42 H42       -13.1308    0.9871   53.4631 H       1  ZINC000912668252    0.1400
     43 H43       -11.3763    1.1037   51.7449 H       1  ZINC000912668252    0.1300
     44 H44        -9.3260   -0.4481   50.8080 H       1  ZINC000912668252    0.4200
     45 H45        -6.2295   -0.7838   50.9902 H       1  ZINC000912668252    0.1100
     46 H46        -7.2368    0.3412   50.0478 H       1  ZINC000912668252    0.1100
     47 H47        -3.1705    3.4687   51.3674 H       1  ZINC000912668252    0.1700
     48 H48        -0.2321    3.6121   51.1129 H       1  ZINC000912668252    0.1400
     49 H49         1.3527    0.7261   48.4133 H       1  ZINC000912668252    0.1400
     50 H50        -0.8972   -0.1377   47.9552 H       1  ZINC000912668252    0.1400
     51 H51        -3.6383    0.2934   48.6962 H       1  ZINC000912668252    0.4300
     52 H52        -9.0531   -1.7643   53.9013 H       1  ZINC000912668252    0.1400
@<TRIPOS>BOND
     1     1     2    1
     2     1    31    1
     3     1    32    1
     4     1    33    1
     5     2     3    1
     6     2    34    1
     7     2    35    1
     8     3     4    1
     9     3     6   am
    10     4     5    1
    11     4    36    1
    12     4    37    1
    13     5    38    1
    14     5    39    1
    15     5    40    1
    16     6     7    2
    17     6     8    1
    18     8    30   ar
    19     8     9   ar
    20     9    10   ar
    21     9    41    1
    22    10    11   ar
    23    10    42    1
    24    11    12   ar
    25    11    43    1
    26    12    13    1
    27    12    30   ar
    28    13    14   am
    29    13    44    1
    30    14    15    2
    31    14    16    1
    32    16    17    1
    33    16    45    1
    34    16    46    1
    35    17    18    1
    36    18    19    2
    37    18    20    1
    38    20    29    1
    39    20    21    2
    40    21    22    1
    41    21    47    1
    42    22    28   ar
    43    22    23   ar
    44    23    24   ar
    45    23    48    1
    46    24    25    1
    47    24    26   ar
    48    26    27   ar
    49    26    49    1
    50    27    28   ar
    51    27    50    1
    52    28    29    1
    53    29    51    1
    54    30    52    1
@<TRIPOS>SUBSTRUCTURE
     1 ZINC000912668252        1 TEMP              0 ****  ****    0 ROOT


##########                                Name:    ZINC001591898574
##########                DOCK_Rotatable_Bonds:                  10
##########                         Heavy_Atoms:                  26
##########                    Molecular_Weight:             383.434
##########                DOCK_Rotatable_Bonds:                  10
##########                       Formal_Charge:         5.96046e-08
##########                     HBond_Acceptors:                  13
##########                        HBond_Donors:                   3
##########                         Heavy_Atoms:                  26
##########                          Grid_Score:          -38.324677
##########                     Grid_vdw_energy:          -33.735752
##########                      Grid_es_energy:           -4.588924
##########           Internal_energy_repulsive:            9.301387

@<TRIPOS>MOLECULE
ZINC001591898574
 47 48 1 0 0
SMALL
USER_CHARGES


@<TRIPOS>ATOM
      1 C1         -7.1016    2.7567   57.6544 C.3     1  ZINC001591898574   -0.1100
      2 C2         -7.7299    1.4443   58.0470 C.ar    1  ZINC001591898574    0.2300
      3 C3         -8.4220    0.6934   57.1135 C.ar    1  ZINC001591898574   -0.2400
      4 C4         -8.9882   -0.5171   57.5206 C.ar    1  ZINC001591898574    0.3000
      5 C5         -9.7398   -1.3590   56.5570 C.2     1  ZINC001591898574    0.2100
      6 N6        -10.0388   -1.0529   55.3100 N.2     1  ZINC001591898574   -0.2500
      7 N7        -10.6951   -2.0417   54.8078 N.pl3   1  ZINC001591898574   -0.2200
      8 N8        -10.8214   -2.9645   55.6964 N.2     1  ZINC001591898574   -0.0400
      9 N9        -10.2418   -2.5814   56.7832 N.2     1  ZINC001591898574   -0.2500
     10 N10        -8.8430   -0.9039   58.7854 N.ar    1  ZINC001591898574   -0.5500
     11 C11        -8.1726   -0.1548   59.6469 C.ar    1  ZINC001591898574    0.5800
     12 N12        -8.0401   -0.5864   60.9553 N.pl3   1  ZINC001591898574   -0.7000
     13 C13        -8.8585    0.0148   62.0114 C.3     1  ZINC001591898574    0.1400
     14 C14        -8.0761    0.0127   63.3262 C.3     1  ZINC001591898574   -0.1500
     15 C15        -8.9930    0.4618   64.4659 C.3     1  ZINC001591898574    0.1200
     16 N16        -8.1852    1.0331   65.5462 N.am    1  ZINC001591898574   -0.7300
     17 C17        -7.8641    0.2811   66.6177 C.2     1  ZINC001591898574    0.4900
     18 O18        -8.2428   -0.8691   66.6867 O.2     1  ZINC001591898574   -0.5300
     19 C19        -7.0347    0.8694   67.7299 C.3     1  ZINC001591898574    0.1000
     20 N20        -5.8342    1.4923   67.1667 N.am    1  ZINC001591898574   -0.9800
     21 C21        -4.7876    0.6588   66.5700 C.3     1  ZINC001591898574    0.1000
     22 S22        -5.6603    3.1388   67.2047 S.o2    1  ZINC001591898574    2.6100
     23 C23        -7.0790    3.7656   66.2640 C.3     1  ZINC001591898574   -0.6600
     24 O24        -5.7870    3.4729   68.5800 O.2     1  ZINC001591898574   -0.9500
     25 O25        -4.4496    3.3795   66.5008 O.2     1  ZINC001591898574   -0.9600
     26 N26        -7.6210    0.9950   59.2873 N.ar    1  ZINC001591898574   -0.5600
     27 H27        -6.0837    2.5822   57.3058 H       1  ZINC001591898574    0.0900
     28 H28        -7.6855    3.2146   56.8559 H       1  ZINC001591898574    0.0900
     29 H29        -7.0811    3.4223   58.5173 H       1  ZINC001591898574    0.0900
     30 H30        -8.5226    1.0353   56.0940 H       1  ZINC001591898574    0.1600
     31 H31       -11.0399   -2.0840   53.9021 H       1  ZINC001591898574    0.4800
     32 H32        -7.4055   -1.2869   61.1731 H       1  ZINC001591898574    0.4200
     33 H33        -9.1077    1.0402   61.7384 H       1  ZINC001591898574    0.0700
     34 H34        -9.7753   -0.5619   62.1331 H       1  ZINC001591898574    0.0700
     35 H35        -7.7099   -0.9936   63.5296 H       1  ZINC001591898574    0.0800
     36 H36        -7.2320    0.6978   63.2478 H       1  ZINC001591898574    0.0800
     37 H37        -9.6900    1.2140   64.0966 H       1  ZINC001591898574    0.0700
     38 H38        -9.5502   -0.3958   64.8433 H       1  ZINC001591898574    0.0700
     39 H39        -7.8814    1.9525   65.4905 H       1  ZINC001591898574    0.4000
     40 H40        -7.6191    1.6210   68.2604 H       1  ZINC001591898574    0.1200
     41 H41        -6.7435    0.0799   68.4226 H       1  ZINC001591898574    0.1300
     42 H42        -4.9932    0.5222   65.5082 H       1  ZINC001591898574    0.0600
     43 H43        -3.8206    1.1463   66.6931 H       1  ZINC001591898574    0.0700
     44 H44        -4.7705   -0.3124   67.0646 H       1  ZINC001591898574    0.0700
     45 H45        -8.0036    3.4429   66.7427 H       1  ZINC001591898574    0.1300
     46 H46        -7.0445    4.8548   66.2373 H       1  ZINC001591898574    0.1200
     47 H47        -7.0414    3.3758   65.2467 H       1  ZINC001591898574    0.1300
@<TRIPOS>BOND
     1     1     2    1
     2     1    27    1
     3     1    28    1
     4     1    29    1
     5     2    26   ar
     6     2     3   ar
     7     3     4   ar
     8     3    30    1
     9     4     5    1
    10     4    10   ar
    11     5     9    1
    12     5     6    2
    13     6     7    1
    14     7     8    1
    15     7    31    1
    16     8     9    2
    17    10    11   ar
    18    11    12    1
    19    11    26   ar
    20    12    13    1
    21    12    32    1
    22    13    14    1
    23    13    33    1
    24    13    34    1
    25    14    15    1
    26    14    35    1
    27    14    36    1
    28    15    16    1
    29    15    37    1
    30    15    38    1
    31    16    17   am
    32    16    39    1
    33    17    18    2
    34    17    19    1
    35    19    20    1
    36    19    40    1
    37    19    41    1
    38    20    21    1
    39    20    22   am
    40    21    42    1
    41    21    43    1
    42    21    44    1
    43    22    23    1
    44    22    24    2
    45    22    25    2
    46    23    45    1
    47    23    46    1
    48    23    47    1
@<TRIPOS>SUBSTRUCTURE
     1 ZINC001591898574        1 TEMP              0 ****  ****    0 ROOT


##########                                Name:    ZINC000546142192
##########                DOCK_Rotatable_Bonds:                  12
##########                         Heavy_Atoms:                  31
##########                    Molecular_Weight:             420.511
##########                DOCK_Rotatable_Bonds:                  12
##########                       Formal_Charge:          -0.0599997
##########                     HBond_Acceptors:                   7
##########                        HBond_Donors:                   2
##########                         Heavy_Atoms:                  31
##########                          Grid_Score:          -38.079136
##########                     Grid_vdw_energy:          -38.672405
##########                      Grid_es_energy:            0.593270
##########           Internal_energy_repulsive:           14.604147

@<TRIPOS>MOLECULE
ZINC000546142192
 59 61 1 0 0
SMALL
USER_CHARGES


@<TRIPOS>ATOM
      1 C1        -14.3869   -5.0202   56.7022 C.3     1  ZINC000546142192    0.0300
      2 O2        -14.0770   -3.9936   57.6813 O.3     1  ZINC000546142192   -0.3600
      3 C3        -14.5274   -2.7546   57.4286 C.2     1  ZINC000546142192    0.4600
      4 O4        -15.2337   -2.5525   56.4693 O.2     1  ZINC000546142192   -0.5100
      5 C5        -14.1522   -1.6157   58.3414 C.3     1  ZINC000546142192   -0.0800
      6 H6        -14.5508   -0.6834   57.9418 H       1  ZINC000546142192    0.1100
      7 C7        -14.7357   -1.8647   59.7338 C.3     1  ZINC000546142192   -0.1500
      8 C8        -12.6281   -1.5196   58.4368 C.3     1  ZINC000546142192   -0.0600
      9 C9        -12.0469   -1.3691   57.0544 C.ar    1  ZINC000546142192   -0.1000
     10 C10       -11.3224   -2.4051   56.4941 C.ar    1  ZINC000546142192   -0.0900
     11 C11       -10.7888   -2.2704   55.2273 C.ar    1  ZINC000546142192   -0.1200
     12 C12       -10.9807   -1.0932   54.5163 C.ar    1  ZINC000546142192    0.1600
     13 N13       -10.4418   -0.9537   53.2323 N.am    1  ZINC000546142192   -0.6900
     14 C14        -9.1796   -0.5078   53.0761 C.2     1  ZINC000546142192    0.7100
     15 O15        -8.5091   -0.2267   54.0507 O.2     1  ZINC000546142192   -0.5700
     16 N16        -8.6605   -0.3735   51.8395 N.am    1  ZINC000546142192   -0.7400
     17 C17        -7.2890    0.1128   51.6697 C.3     1  ZINC000546142192    0.2300
     18 C18        -7.3050    1.6093   51.4928 C.2     1  ZINC000546142192    0.1800
     19 N19        -8.2227    2.4189   51.9458 N.2     1  ZINC000546142192   -0.4700
     20 C20        -7.9115    3.6773   51.6017 C.2     1  ZINC000546142192   -0.0300
     21 C21        -6.7569    3.6464   50.9091 C.2     1  ZINC000546142192   -0.0400
     22 N22        -6.3690    2.3353   50.8443 N.pl3   1  ZINC000546142192   -0.4500
     23 C23        -5.1673    1.8157   50.1869 C.3     1  ZINC000546142192    0.1100
     24 C24        -3.9878    2.7482   50.4695 C.3     1  ZINC000546142192   -0.0900
     25 C25        -2.7125    2.1051   49.9886 C.ar    1  ZINC000546142192   -0.0900
     26 C26        -2.7527    1.1579   48.9826 C.ar    1  ZINC000546142192   -0.1100
     27 C27        -1.5828    0.5681   48.5415 C.ar    1  ZINC000546142192   -0.1200
     28 C28        -0.3729    0.9258   49.1062 C.ar    1  ZINC000546142192   -0.1200
     29 C29        -0.3326    1.8736   50.1116 C.ar    1  ZINC000546142192   -0.1200
     30 C30        -1.5019    2.4666   50.5497 C.ar    1  ZINC000546142192   -0.1100
     31 C31       -11.7089   -0.0547   55.0818 C.ar    1  ZINC000546142192   -0.1500
     32 C32       -12.2442   -0.1976   56.3469 C.ar    1  ZINC000546142192   -0.0900
     33 H33       -13.9592   -4.7439   55.7385 H       1  ZINC000546142192    0.0600
     34 H34       -13.9657   -5.9714   57.0274 H       1  ZINC000546142192    0.1000
     35 H35       -15.4684   -5.1156   56.6058 H       1  ZINC000546142192    0.0600
     36 H36       -14.3370   -2.7971   60.1334 H       1  ZINC000546142192    0.0600
     37 H37       -14.4642   -1.0409   60.3940 H       1  ZINC000546142192    0.0800
     38 H38       -15.8213   -1.9332   59.6658 H       1  ZINC000546142192    0.0700
     39 H39       -12.3558   -0.6546   59.0415 H       1  ZINC000546142192    0.0800
     40 H40       -12.2352   -2.4248   58.8996 H       1  ZINC000546142192    0.0800
     41 H41       -11.1732   -3.3202   57.0478 H       1  ZINC000546142192    0.1300
     42 H42       -10.2227   -3.0797   54.7905 H       1  ZINC000546142192    0.1400
     43 H43       -10.9767   -1.1779   52.4548 H       1  ZINC000546142192    0.4100
     44 H44        -9.1949   -0.5990   51.0621 H       1  ZINC000546142192    0.4000
     45 H45        -6.7012   -0.1425   52.5515 H       1  ZINC000546142192    0.0800
     46 H46        -6.8449   -0.3524   50.7897 H       1  ZINC000546142192    0.1000
     47 H47        -8.4860    4.5607   51.8385 H       1  ZINC000546142192    0.1700
     48 H48        -6.2352    4.4936   50.4891 H       1  ZINC000546142192    0.1800
     49 H49        -4.9441    0.8206   50.5717 H       1  ZINC000546142192    0.1000
     50 H50        -5.3368    1.7597   49.1117 H       1  ZINC000546142192    0.0900
     51 H51        -4.1380    3.6928   49.9467 H       1  ZINC000546142192    0.0800
     52 H52        -3.9195    2.9332   51.5416 H       1  ZINC000546142192    0.0800
     53 H53        -3.6980    0.8785   48.5415 H       1  ZINC000546142192    0.1200
     54 H54        -1.6144   -0.1724   47.7560 H       1  ZINC000546142192    0.1200
     55 H55         0.5410    0.4644   48.7620 H       1  ZINC000546142192    0.1200
     56 H56         0.6127    2.1528   50.5529 H       1  ZINC000546142192    0.1200
     57 H57        -1.4705    3.2072   51.3352 H       1  ZINC000546142192    0.1200
     58 H58       -11.8598    0.8621   54.5312 H       1  ZINC000546142192    0.1300
     59 H59       -12.8110    0.6096   56.7871 H       1  ZINC000546142192    0.1300
@<TRIPOS>BOND
     1     1     2    1
     2     1    33    1
     3     1    34    1
     4     1    35    1
     5     2     3    1
     6     3     4    2
     7     3     5    1
     8     5     6    1
     9     5     7    1
    10     5     8    1
    11     7    36    1
    12     7    37    1
    13     7    38    1
    14     8     9    1
    15     8    39    1
    16     8    40    1
    17     9    32   ar
    18     9    10   ar
    19    10    11   ar
    20    10    41    1
    21    11    12   ar
    22    11    42    1
    23    12    13    1
    24    12    31   ar
    25    13    14   am
    26    13    43    1
    27    14    15    2
    28    14    16   am
    29    16    17    1
    30    16    44    1
    31    17    18    1
    32    17    45    1
    33    17    46    1
    34    18    22    1
    35    18    19    2
    36    19    20    1
    37    20    21    2
    38    20    47    1
    39    21    22    1
    40    21    48    1
    41    22    23    1
    42    23    24    1
    43    23    49    1
    44    23    50    1
    45    24    25    1
    46    24    51    1
    47    24    52    1
    48    25    30   ar
    49    25    26   ar
    50    26    27   ar
    51    26    53    1
    52    27    28   ar
    53    27    54    1
    54    28    29   ar
    55    28    55    1
    56    29    30   ar
    57    29    56    1
    58    30    57    1
    59    31    32   ar
    60    31    58    1
    61    32    59    1
@<TRIPOS>SUBSTRUCTURE
     1 ZINC000546142192        1 TEMP              0 ****  ****    0 ROOT


##########                                Name:    ZINC000981700465
##########                DOCK_Rotatable_Bonds:                   9
##########                         Heavy_Atoms:                  26
##########                    Molecular_Weight:             356.428
##########                DOCK_Rotatable_Bonds:                   9
##########                       Formal_Charge:               -0.01
##########                     HBond_Acceptors:                   8
##########                        HBond_Donors:                   3
##########                         Heavy_Atoms:                  26
##########                          Grid_Score:          -37.843151
##########                     Grid_vdw_energy:          -37.012665
##########                      Grid_es_energy:           -0.830488
##########           Internal_energy_repulsive:           12.918118

@<TRIPOS>MOLECULE
ZINC000981700465
 50 52 1 0 0
SMALL
USER_CHARGES


@<TRIPOS>ATOM
      1 C1         -7.2889    1.6153   57.8764 C.3     1  ZINC000981700465   -0.1500
      2 C2         -8.1946    0.3858   57.7804 C.3     1  ZINC000981700465   -0.1100
      3 C3         -8.4437    0.0495   56.3088 C.3     1  ZINC000981700465   -0.0500
      4 C4         -9.4931   -1.0275   56.2103 C.2     1  ZINC000981700465    0.1400
      5 N5        -10.0341   -1.6647   57.2118 N.2     1  ZINC000981700465   -0.2900
      6 N6        -10.9628   -2.5857   56.7146 N.pl3   1  ZINC000981700465   -0.4600
      7 C7        -10.9768   -2.4954   55.3751 C.2     1  ZINC000981700465    0.1000
      8 C8        -10.0683   -1.5197   55.0173 C.2     1  ZINC000981700465   -0.2900
      9 C9         -9.7501   -1.0804   53.6463 C.2     1  ZINC000981700465    0.5900
     10 O10       -10.5840   -1.1801   52.7669 O.2     1  ZINC000981700465   -0.5300
     11 N11        -8.5349   -0.5684   53.3678 N.am    1  ZINC000981700465   -0.7300
     12 C12        -8.2180   -0.1336   52.0052 C.3     1  ZINC000981700465    0.1300
     13 C13        -7.7093    1.3091   52.0356 C.3     1  ZINC000981700465   -0.1100
     14 H14        -8.5092    1.9885   52.3295 H       1  ZINC000981700465    0.0900
     15 C15        -6.5053    1.4391   53.0013 C.3     1  ZINC000981700465   -0.1200
     16 C16        -5.7749    2.6972   52.4695 C.3     1  ZINC000981700465   -0.1300
     17 C17        -5.9060    2.5910   50.9361 C.3     1  ZINC000981700465    0.1400
     18 H18        -6.0525    3.5811   50.5044 H       1  ZINC000981700465    0.1000
     19 N19        -4.7050    1.9705   50.3716 N.am    1  ZINC000981700465   -0.7100
     20 C20        -3.5310    2.6322   50.3932 C.2     1  ZINC000981700465    0.5600
     21 O21        -3.4691    3.7441   50.8795 O.2     1  ZINC000981700465   -0.5200
     22 C22        -2.3162    2.0041   49.8240 C.ar    1  ZINC000981700465   -0.1400
     23 C23        -2.4068    0.9203   48.9412 C.ar    1  ZINC000981700465   -0.0600
     24 C24        -1.2266    0.3861   48.4499 C.ar    1  ZINC000981700465    0.0400
     25 N25        -0.0683    0.8993   48.8166 N.ar    1  ZINC000981700465   -0.2200
     26 N26         0.0215    1.8916   49.6246 N.ar    1  ZINC000981700465   -0.2400
     27 C27        -1.0403    2.4760   50.1447 C.ar    1  ZINC000981700465    0.0700
     28 C28        -7.1391    1.7096   50.6591 C.3     1  ZINC000981700465   -0.1200
     29 H29        -7.7716    2.4612   57.3869 H       1  ZINC000981700465    0.0600
     30 H30        -7.1115    1.8549   58.9247 H       1  ZINC000981700465    0.0600
     31 H31        -6.3385    1.4056   57.3857 H       1  ZINC000981700465    0.0500
     32 H32        -7.7119   -0.4601   58.2698 H       1  ZINC000981700465    0.0600
     33 H33        -9.1451    0.5955   58.2711 H       1  ZINC000981700465    0.0600
     34 H34        -8.7881    0.9414   55.7854 H       1  ZINC000981700465    0.1000
     35 H35        -7.5175   -0.3032   55.8549 H       1  ZINC000981700465    0.0800
     36 H36       -11.5052   -3.1878   57.2477 H       1  ZINC000981700465    0.4500
     37 H37       -11.5895   -3.0763   54.7016 H       1  ZINC000981700465    0.1800
     38 H38        -7.8701   -0.4878   54.0696 H       1  ZINC000981700465    0.4000
     39 H39        -7.4480   -0.7817   51.5868 H       1  ZINC000981700465    0.0700
     40 H40        -9.1148   -0.1897   51.3881 H       1  ZINC000981700465    0.0700
     41 H41        -6.8462    1.5940   54.0249 H       1  ZINC000981700465    0.0700
     42 H42        -5.8613    0.5621   52.9360 H       1  ZINC000981700465    0.0700
     43 H43        -6.2616    3.6026   52.8322 H       1  ZINC000981700465    0.0800
     44 H44        -4.7257    2.6825   52.7647 H       1  ZINC000981700465    0.0700
     45 H45        -4.7546    1.0835   49.9824 H       1  ZINC000981700465    0.4000
     46 H46        -3.3652    0.5141   48.6533 H       1  ZINC000981700465    0.1700
     47 H47        -1.2550   -0.4502   47.7671 H       1  ZINC000981700465    0.1800
     48 H48        -0.9243    3.3097   50.8214 H       1  ZINC000981700465    0.1700
     49 H49        -6.8442    0.8183   50.1054 H       1  ZINC000981700465    0.0800
     50 H50        -7.8812    2.2728   50.0932 H       1  ZINC000981700465    0.0800
@<TRIPOS>BOND
     1     1     2    1
     2     1    29    1
     3     1    30    1
     4     1    31    1
     5     2     3    1
     6     2    32    1
     7     2    33    1
     8     3     4    1
     9     3    34    1
    10     3    35    1
    11     4     8    1
    12     4     5    2
    13     5     6    1
    14     6     7    1
    15     6    36    1
    16     7     8    2
    17     7    37    1
    18     8     9    1
    19     9    10    2
    20     9    11   am
    21    11    12    1
    22    11    38    1
    23    12    13    1
    24    12    39    1
    25    12    40    1
    26    13    14    1
    27    13    28    1
    28    13    15    1
    29    15    16    1
    30    15    41    1
    31    15    42    1
    32    16    17    1
    33    16    43    1
    34    16    44    1
    35    17    18    1
    36    17    19    1
    37    17    28    1
    38    19    20   am
    39    19    45    1
    40    20    21    2
    41    20    22    1
    42    22    27   ar
    43    22    23   ar
    44    23    24   ar
    45    23    46    1
    46    24    25   ar
    47    24    47    1
    48    25    26   ar
    49    26    27   ar
    50    27    48    1
    51    28    49    1
    52    28    50    1
@<TRIPOS>SUBSTRUCTURE
     1 ZINC000981700465        1 TEMP              0 ****  ****    0 ROOT


##########                                Name:    ZINC000552360217
##########                DOCK_Rotatable_Bonds:                  13
##########                         Heavy_Atoms:                  27
##########                    Molecular_Weight:             401.484
##########                DOCK_Rotatable_Bonds:                  13
##########                       Formal_Charge:          -0.0100002
##########                     HBond_Acceptors:                  10
##########                        HBond_Donors:                   3
##########                         Heavy_Atoms:                  27
##########                          Grid_Score:          -37.681908
##########                     Grid_vdw_energy:          -36.539646
##########                      Grid_es_energy:           -1.142261
##########           Internal_energy_repulsive:           18.885338

@<TRIPOS>MOLECULE
ZINC000552360217
 54 54 1 0 0
SMALL
USER_CHARGES


@<TRIPOS>ATOM
      1 C1          2.3149    0.9790   51.7426 C.3     1  ZINC000552360217    0.0800
      2 N2          2.3005    2.1516   50.8643 N.am    1  ZINC000552360217   -1.0000
      3 C3          2.5656    3.4828   51.4155 C.3     1  ZINC000552360217    0.0900
      4 S4          1.9848    1.9722   49.2487 S.o2    1  ZINC000552360217    2.7000
      5 O5          1.8922    3.2839   48.7099 O.2     1  ZINC000552360217   -0.9500
      6 O6          2.8990    0.9968   48.7670 O.2     1  ZINC000552360217   -0.9500
      7 C7          0.3787    1.2617   49.1069 C.ar    1  ZINC000552360217   -0.6900
      8 C8          0.2150    0.0488   48.4621 C.ar    1  ZINC000552360217    0.0100
      9 C9         -1.0429   -0.5163   48.3469 C.ar    1  ZINC000552360217   -0.1400
     10 C10        -2.1426    0.1274   48.8750 C.ar    1  ZINC000552360217   -0.0300
     11 C11        -1.9844    1.3516   49.5269 C.ar    1  ZINC000552360217   -0.1600
     12 C12        -3.1586    2.0470   50.0957 C.2     1  ZINC000552360217    0.5600
     13 O13        -3.0042    3.0371   50.7838 O.2     1  ZINC000552360217   -0.5300
     14 N14        -4.4001    1.5832   49.8514 N.am    1  ZINC000552360217   -0.7100
     15 C15        -5.5638    2.2733   50.4135 C.3     1  ZINC000552360217    0.1000
     16 C16        -6.6616    1.2748   50.6760 C.2     1  ZINC000552360217    0.5100
     17 O17        -7.5260    1.0915   49.8452 O.2     1  ZINC000552360217   -0.5400
     18 N18        -6.6830    0.5856   51.8341 N.am    1  ZINC000552360217   -0.7200
     19 C19        -7.7493   -0.3862   52.0885 C.3     1  ZINC000552360217    0.1400
     20 C20        -8.7223    0.1834   53.1228 C.3     1  ZINC000552360217    0.1000
     21 C21        -9.4272    1.4094   52.5388 C.3     1  ZINC000552360217   -0.1800
     22 C22        -9.7624   -0.8790   53.4840 C.3     1  ZINC000552360217   -0.1800
     23 O23        -8.0013    0.5627   54.2968 O.3     1  ZINC000552360217   -0.3700
     24 C24        -8.7237    1.4379   55.1652 C.3     1  ZINC000552360217    0.0600
     25 C25        -7.9936    1.5434   56.5056 C.3     1  ZINC000552360217    0.0800
     26 O26        -7.9489    0.2569   57.1261 O.3     1  ZINC000552360217   -0.5700
     27 C27        -0.7123    1.9135   49.6443 C.ar    1  ZINC000552360217    0.0400
     28 H28         1.3147    0.8125   52.1427 H       1  ZINC000552360217    0.0600
     29 H29         2.6293    0.1035   51.1745 H       1  ZINC000552360217    0.0900
     30 H30         3.0112    1.1486   52.5638 H       1  ZINC000552360217    0.0800
     31 H31         2.7503    3.4024   52.4868 H       1  ZINC000552360217    0.0800
     32 H32         3.4411    3.9106   50.9271 H       1  ZINC000552360217    0.0700
     33 H33         1.7027    4.1260   51.2429 H       1  ZINC000552360217    0.0600
     34 H34         1.0727   -0.4592   48.0466 H       1  ZINC000552360217    0.1500
     35 H35        -1.1639   -1.4633   47.8420 H       1  ZINC000552360217    0.1400
     36 H36        -3.1238   -0.3145   48.7841 H       1  ZINC000552360217    0.1400
     37 H37        -4.5234    0.7924   49.3033 H       1  ZINC000552360217    0.4100
     38 H38        -5.2822    2.7577   51.3486 H       1  ZINC000552360217    0.1000
     39 H39        -5.9170    3.0244   49.7071 H       1  ZINC000552360217    0.1000
     40 H40        -5.9924    0.7331   52.4990 H       1  ZINC000552360217    0.4100
     41 H41        -8.2837   -0.5905   51.1607 H       1  ZINC000552360217    0.0800
     42 H42        -7.3150   -1.3109   52.4688 H       1  ZINC000552360217    0.0900
     43 H43        -9.9772    1.1200   51.6433 H       1  ZINC000552360217    0.0700
     44 H44       -10.1203    1.8152   53.2757 H       1  ZINC000552360217    0.0700
     45 H45        -8.6863    2.1663   52.2814 H       1  ZINC000552360217    0.0700
     46 H46        -9.2602   -1.7524   53.9000 H       1  ZINC000552360217    0.0600
     47 H47       -10.4555   -0.4732   54.2209 H       1  ZINC000552360217    0.0700
     48 H48       -10.3123   -1.1683   52.5885 H       1  ZINC000552360217    0.0700
     49 H49        -8.7925    2.4260   54.7101 H       1  ZINC000552360217    0.0600
     50 H50        -9.7263    1.0422   55.3278 H       1  ZINC000552360217    0.0700
     51 H51        -6.9778    1.9019   56.3388 H       1  ZINC000552360217    0.0600
     52 H52        -8.5234    2.2413   57.1539 H       1  ZINC000552360217    0.0500
     53 H53        -8.8196   -0.1244   57.3039 H       1  ZINC000552360217    0.3800
     54 H54        -0.5833    2.8604   50.1474 H       1  ZINC000552360217    0.1500
@<TRIPOS>BOND
     1     1     2    1
     2     1    28    1
     3     1    29    1
     4     1    30    1
     5     2     3    1
     6     2     4   am
     7     3    31    1
     8     3    32    1
     9     3    33    1
    10     4     5    2
    11     4     6    2
    12     4     7    1
    13     7    27   ar
    14     7     8   ar
    15     8     9   ar
    16     8    34    1
    17     9    10   ar
    18     9    35    1
    19    10    11   ar
    20    10    36    1
    21    11    12    1
    22    11    27   ar
    23    12    13    2
    24    12    14   am
    25    14    15    1
    26    14    37    1
    27    15    16    1
    28    15    38    1
    29    15    39    1
    30    16    17    2
    31    16    18   am
    32    18    19    1
    33    18    40    1
    34    19    20    1
    35    19    41    1
    36    19    42    1
    37    20    21    1
    38    20    22    1
    39    20    23    1
    40    21    43    1
    41    21    44    1
    42    21    45    1
    43    22    46    1
    44    22    47    1
    45    22    48    1
    46    23    24    1
    47    24    25    1
    48    24    49    1
    49    24    50    1
    50    25    26    1
    51    25    51    1
    52    25    52    1
    53    26    53    1
    54    27    54    1
@<TRIPOS>SUBSTRUCTURE
     1 ZINC000552360217        1 TEMP              0 ****  ****    0 ROOT


##########                                Name:    ZINC000583220082
##########                DOCK_Rotatable_Bonds:                   9
##########                         Heavy_Atoms:                  29
##########                    Molecular_Weight:             417.492
##########                DOCK_Rotatable_Bonds:                   9
##########                       Formal_Charge:          -0.0400006
##########                     HBond_Acceptors:                  11
##########                        HBond_Donors:                   3
##########                         Heavy_Atoms:                  29
##########                          Grid_Score:          -37.530922
##########                     Grid_vdw_energy:          -37.846031
##########                      Grid_es_energy:            0.315109
##########           Internal_energy_repulsive:           17.189585

@<TRIPOS>MOLECULE
ZINC000583220082
 52 54 1 0 0
SMALL
USER_CHARGES


@<TRIPOS>ATOM
      1 C1         -9.4195   -3.0975   58.7473 C.3     1  ZINC000583220082    0.0800
      2 N2        -10.7400   -2.6111   59.1547 N.am    1  ZINC000583220082   -0.6300
      3 C3        -10.9535   -2.1294   60.5216 C.3     1  ZINC000583220082    0.0800
      4 C4        -11.7583   -2.6067   58.2718 C.2     1  ZINC000583220082    0.5100
      5 O5        -12.8511   -2.2024   58.6085 O.2     1  ZINC000583220082   -0.5300
      6 C6        -11.5390   -3.1038   56.8662 C.3     1  ZINC000583220082   -0.1000
      7 C7        -11.0030   -1.9820   56.0145 C.ar    1  ZINC000583220082   -0.0800
      8 C8        -10.0625   -2.2476   55.0361 C.ar    1  ZINC000583220082   -0.0800
      9 C9         -9.5691   -1.2221   54.2537 C.ar    1  ZINC000583220082   -0.1400
     10 C10       -10.0193    0.0775   54.4501 C.ar    1  ZINC000583220082    0.1400
     11 N11        -9.5227    1.1175   53.6601 N.am    1  ZINC000583220082   -0.6400
     12 C12        -9.9258    1.2430   52.3802 C.2     1  ZINC000583220082    0.5100
     13 O13       -10.7203    0.4528   51.9138 O.2     1  ZINC000583220082   -0.4900
     14 C14        -9.3949    2.3547   51.5357 C.2     1  ZINC000583220082    0.5100
     15 O15        -9.9428    3.4375   51.5433 O.2     1  ZINC000583220082   -0.5100
     16 N16        -8.3071    2.1553   50.7652 N.am    1  ZINC000583220082   -0.5800
     17 C17        -7.7643    3.2382   49.9310 C.3     1  ZINC000583220082    0.0600
     18 C18        -6.2634    3.3641   50.2129 C.3     1  ZINC000583220082    0.0300
     19 N19        -5.6219    2.0557   50.0272 N.3     1  ZINC000583220082   -0.4300
     20 C20        -4.2460    2.1616   50.1142 C.2     1  ZINC000583220082    0.2900
     21 N21        -3.3462    1.4230   49.4997 N.2     1  ZINC000583220082   -0.5700
     22 C22        -2.0825    1.7090   49.7358 C.2     1  ZINC000583220082    0.5400
     23 N23        -1.0541    0.9856   49.1333 N.pl3   1  ZINC000583220082   -0.8200
     24 N24        -1.8266    2.6944   50.5544 N.2     1  ZINC000583220082   -0.5500
     25 S25        -3.3395    3.2932   51.0443 S.3     1  ZINC000583220082    0.2000
     26 C26        -6.1358    1.0693   50.9868 C.3     1  ZINC000583220082    0.0500
     27 C27        -7.6279    0.8510   50.7412 C.3     1  ZINC000583220082    0.1100
     28 C28       -10.9646    0.3406   55.4337 C.ar    1  ZINC000583220082   -0.1200
     29 C29       -11.4571   -0.6904   56.2091 C.ar    1  ZINC000583220082   -0.0800
     30 H30        -9.3512   -4.1681   58.9406 H       1  ZINC000583220082    0.0500
     31 H31        -9.2757   -2.9106   57.6831 H       1  ZINC000583220082    0.0800
     32 H32        -8.6491   -2.5759   59.3152 H       1  ZINC000583220082    0.0700
     33 H33       -10.0234   -2.2088   61.0843 H       1  ZINC000583220082    0.0800
     34 H34       -11.2736   -1.0878   60.4939 H       1  ZINC000583220082    0.0600
     35 H35       -11.7225   -2.7331   61.0036 H       1  ZINC000583220082    0.0600
     36 H36       -10.8222   -3.9248   56.8788 H       1  ZINC000583220082    0.1000
     37 H37       -12.4850   -3.4537   56.4529 H       1  ZINC000583220082    0.1000
     38 H38        -9.7130   -3.2581   54.8839 H       1  ZINC000583220082    0.1300
     39 H39        -8.8341   -1.4301   53.4903 H       1  ZINC000583220082    0.1300
     40 H40        -8.8877    1.7490   54.0328 H       1  ZINC000583220082    0.4200
     41 H41        -7.9205    3.0027   48.8782 H       1  ZINC000583220082    0.0900
     42 H42        -8.2631    4.1754   50.1774 H       1  ZINC000583220082    0.1700
     43 H43        -5.8233    4.0859   49.5248 H       1  ZINC000583220082    0.1100
     44 H44        -6.1129    3.7006   51.2387 H       1  ZINC000583220082    0.0700
     45 H45        -0.2900    0.7001   49.6581 H       1  ZINC000583220082    0.4200
     46 H46        -1.1028    0.7679   48.1893 H       1  ZINC000583220082    0.4200
     47 H47        -5.6032    0.1267   50.8598 H       1  ZINC000583220082    0.1100
     48 H48        -5.9872    1.4377   52.0018 H       1  ZINC000583220082    0.0600
     49 H49        -8.0372    0.2088   51.5209 H       1  ZINC000583220082    0.1100
     50 H50        -7.7743    0.3866   49.7660 H       1  ZINC000583220082    0.0900
     51 H51       -11.3167    1.3498   55.5889 H       1  ZINC000583220082    0.1400
     52 H52       -12.1920   -0.4866   56.9738 H       1  ZINC000583220082    0.1300
@<TRIPOS>BOND
     1     1     2    1
     2     1    30    1
     3     1    31    1
     4     1    32    1
     5     2     3    1
     6     2     4   am
     7     3    33    1
     8     3    34    1
     9     3    35    1
    10     4     5    2
    11     4     6    1
    12     6     7    1
    13     6    36    1
    14     6    37    1
    15     7    29   ar
    16     7     8   ar
    17     8     9   ar
    18     8    38    1
    19     9    10   ar
    20     9    39    1
    21    10    11    1
    22    10    28   ar
    23    11    12   am
    24    11    40    1
    25    12    13    2
    26    12    14    1
    27    14    15    2
    28    14    16   am
    29    16    27    1
    30    16    17    1
    31    17    18    1
    32    17    41    1
    33    17    42    1
    34    18    19    1
    35    18    43    1
    36    18    44    1
    37    19    20    1
    38    19    26    1
    39    20    25    1
    40    20    21    2
    41    21    22    1
    42    22    23    1
    43    22    24    2
    44    23    45    1
    45    23    46    1
    46    24    25    1
    47    26    27    1
    48    26    47    1
    49    26    48    1
    50    27    49    1
    51    27    50    1
    52    28    29   ar
    53    28    51    1
    54    29    52    1
@<TRIPOS>SUBSTRUCTURE
     1 ZINC000583220082        1 TEMP              0 ****  ****    0 ROOT


##########                                Name:    ZINC000508765459
##########                DOCK_Rotatable_Bonds:                  10
##########                         Heavy_Atoms:                  29
##########                    Molecular_Weight:               405.5
##########                DOCK_Rotatable_Bonds:                  10
##########                       Formal_Charge:         -6.4075e-07
##########                     HBond_Acceptors:                  10
##########                        HBond_Donors:                   1
##########                         Heavy_Atoms:                  29
##########                          Grid_Score:          -37.435978
##########                     Grid_vdw_energy:          -38.135166
##########                      Grid_es_energy:            0.699190
##########           Internal_energy_repulsive:           17.593372

@<TRIPOS>MOLECULE
ZINC000508765459
 60 62 1 0 0
SMALL
USER_CHARGES


@<TRIPOS>ATOM
      1 C1         -4.6869    1.6048   50.0448 C.3     1  ZINC000508765459    0.0300
      2 O2         -5.3927    2.3695   51.0241 O.3     1  ZINC000508765459   -0.3900
      3 C3         -6.6395    1.7957   51.4217 C.3     1  ZINC000508765459    0.0500
      4 C4         -6.3847    0.6607   52.4156 C.3     1  ZINC000508765459    0.1100
      5 N5         -7.5786    0.4557   53.2393 N.am    1  ZINC000508765459   -0.5900
      6 C6         -7.6006    1.0633   54.5629 C.3     1  ZINC000508765459    0.1000
      7 C7         -9.0381    1.2304   55.0595 C.3     1  ZINC000508765459    0.1200
      8 N8         -9.7569   -0.0325   54.8198 N.am    1  ZINC000508765459   -0.6400
      9 C9        -10.2771   -0.7471   55.8370 C.2     1  ZINC000508765459    0.7100
     10 O10       -10.8648   -1.7873   55.6113 O.2     1  ZINC000508765459   -0.5800
     11 N11       -10.1460   -0.3087   57.1048 N.am    1  ZINC000508765459   -0.7400
     12 C12       -10.7100   -1.0864   58.2109 C.3     1  ZINC000508765459    0.1400
     13 C13        -9.8334   -0.9160   59.4532 C.3     1  ZINC000508765459   -0.1400
     14 C14       -10.2304    0.3673   60.1854 C.3     1  ZINC000508765459    0.0600
     15 N15        -9.7963    0.2860   61.5864 N.3     1  ZINC000508765459   -0.5400
     16 C16       -10.2231    1.4734   62.3399 C.3     1  ZINC000508765459    0.0500
     17 C17        -9.8222    1.3138   63.8083 C.3     1  ZINC000508765459    0.0700
     18 N18        -8.3668    1.1311   63.8989 N.3     1  ZINC000508765459   -0.4600
     19 C19        -7.9578    1.0544   65.2190 C.ar    1  ZINC000508765459    0.4900
     20 N20        -8.6471    1.6999   66.1482 N.ar    1  ZINC000508765459   -0.5500
     21 C21        -8.2835    1.6470   67.4189 C.ar    1  ZINC000508765459    0.1700
     22 C22        -7.1671    0.9053   67.7722 C.ar    1  ZINC000508765459   -0.2600
     23 C23        -6.4690    0.2425   66.7750 C.ar    1  ZINC000508765459    0.1700
     24 N24        -6.8892    0.3328   65.5240 N.ar    1  ZINC000508765459   -0.5300
     25 C25        -7.9400   -0.0562   63.1455 C.3     1  ZINC000508765459    0.0700
     26 C26        -8.3410    0.1034   61.6771 C.3     1  ZINC000508765459    0.0600
     27 C27        -9.8843   -0.4815   53.4254 C.3     1  ZINC000508765459    0.1000
     28 C28        -8.5715   -0.2697   52.7226 C.2     1  ZINC000508765459    0.5100
     29 O29        -8.4046   -0.7895   51.6396 O.2     1  ZINC000508765459   -0.5400
     30 H30        -5.2983    1.5108   49.1473 H       1  ZINC000508765459    0.0400
     31 H31        -3.7518    2.1069   49.7963 H       1  ZINC000508765459    0.0900
     32 H32        -4.4720    0.6133   50.4435 H       1  ZINC000508765459    0.0400
     33 H33        -7.2572    2.5598   51.8934 H       1  ZINC000508765459    0.0500
     34 H34        -7.1543    1.4023   50.5451 H       1  ZINC000508765459    0.0600
     35 H35        -6.1577   -0.2555   51.8705 H       1  ZINC000508765459    0.1100
     36 H36        -5.5417    0.9208   53.0559 H       1  ZINC000508765459    0.0900
     37 H37        -7.0524    0.4279   55.2585 H       1  ZINC000508765459    0.0700
     38 H38        -7.1210    2.0410   54.5169 H       1  ZINC000508765459    0.1000
     39 H39        -9.0349    1.4551   56.1260 H       1  ZINC000508765459    0.1200
     40 H40        -9.5239    2.0393   54.5140 H       1  ZINC000508765459    0.0800
     41 H41        -9.6783    0.5218   57.2848 H       1  ZINC000508765459    0.4000
     42 H42       -11.7184   -0.7330   58.4264 H       1  ZINC000508765459    0.0700
     43 H43       -10.7458   -2.1398   57.9331 H       1  ZINC000508765459    0.0700
     44 H44        -9.9722   -1.7703   60.1158 H       1  ZINC000508765459    0.0700
     45 H45        -8.7871   -0.8546   59.1538 H       1  ZINC000508765459    0.0800
     46 H46        -9.7530    1.2218   59.7061 H       1  ZINC000508765459    0.0800
     47 H47       -11.3132    0.4873   60.1470 H       1  ZINC000508765459    0.0400
     48 H48        -9.7417    2.3593   61.9256 H       1  ZINC000508765459    0.0500
     49 H49       -11.3055    1.5800   62.2680 H       1  ZINC000508765459    0.0900
     50 H50       -10.1119    2.2060   64.3634 H       1  ZINC000508765459    0.0900
     51 H51       -10.3248    0.4434   64.2301 H       1  ZINC000508765459    0.0600
     52 H52        -8.8493    2.1755   68.1717 H       1  ZINC000508765459    0.1700
     53 H53        -6.8479    0.8455   68.8023 H       1  ZINC000508765459    0.1500
     54 H54        -5.5947   -0.3436   67.0169 H       1  ZINC000508765459    0.1700
     55 H55        -6.8575   -0.1629   63.2173 H       1  ZINC000508765459    0.1000
     56 H56        -8.4213   -0.9421   63.5597 H       1  ZINC000508765459    0.0500
     57 H57        -8.0512   -0.7889   61.1220 H       1  ZINC000508765459    0.0900
     58 H58        -7.8382    0.9737   61.2553 H       1  ZINC000508765459    0.0500
     59 H59       -10.1460   -1.5395   53.4051 H       1  ZINC000508765459    0.1100
     60 H60       -10.6601    0.0978   52.9248 H       1  ZINC000508765459    0.1100
@<TRIPOS>BOND
     1     1     2    1
     2     1    30    1
     3     1    31    1
     4     1    32    1
     5     2     3    1
     6     3     4    1
     7     3    33    1
     8     3    34    1
     9     4     5    1
    10     4    35    1
    11     4    36    1
    12     5    28   am
    13     5     6    1
    14     6     7    1
    15     6    37    1
    16     6    38    1
    17     7     8    1
    18     7    39    1
    19     7    40    1
    20     8     9   am
    21     8    27    1
    22     9    10    2
    23     9    11   am
    24    11    12    1
    25    11    41    1
    26    12    13    1
    27    12    42    1
    28    12    43    1
    29    13    14    1
    30    13    44    1
    31    13    45    1
    32    14    15    1
    33    14    46    1
    34    14    47    1
    35    15    26    1
    36    15    16    1
    37    16    17    1
    38    16    48    1
    39    16    49    1
    40    17    18    1
    41    17    50    1
    42    17    51    1
    43    18    19    1
    44    18    25    1
    45    19    24   ar
    46    19    20   ar
    47    20    21   ar
    48    21    22   ar
    49    21    52    1
    50    22    23   ar
    51    22    53    1
    52    23    24   ar
    53    23    54    1
    54    25    26    1
    55    25    55    1
    56    25    56    1
    57    26    57    1
    58    26    58    1
    59    27    28    1
    60    27    59    1
    61    27    60    1
    62    28    29    2
@<TRIPOS>SUBSTRUCTURE
     1 ZINC000508765459        1 TEMP              0 ****  ****    0 ROOT


##########                                Name:    ZINC000474251633
##########                DOCK_Rotatable_Bonds:                   8
##########                         Heavy_Atoms:                  28
##########                    Molecular_Weight:             416.931
##########                DOCK_Rotatable_Bonds:                   8
##########                       Formal_Charge:          0.00999953
##########                     HBond_Acceptors:                   8
##########                        HBond_Donors:                   2
##########                         Heavy_Atoms:                  28
##########                          Grid_Score:          -37.429760
##########                     Grid_vdw_energy:          -36.153316
##########                      Grid_es_energy:           -1.276443
##########           Internal_energy_repulsive:            7.542555

@<TRIPOS>MOLECULE
ZINC000474251633
 49 52 1 0 0
SMALL
USER_CHARGES


@<TRIPOS>ATOM
      1 O1        -10.4418   -2.4710   55.3312 O.2     1  ZINC000474251633   -0.5300
      2 C2        -11.3395   -1.7247   55.6601 C.2     1  ZINC000474251633    0.5100
      3 C3        -11.7045   -0.5534   54.7849 C.3     1  ZINC000474251633    0.1000
      4 N4        -10.4965   -0.0271   54.1447 N.am    1  ZINC000474251633   -0.7100
      5 C5        -10.2532   -0.2901   52.8454 C.2     1  ZINC000474251633    0.5900
      6 O6        -11.0375   -0.9635   52.2038 O.2     1  ZINC000474251633   -0.5000
      7 C7         -9.0415    0.2360   52.2043 C.2     1  ZINC000474251633   -0.2300
      8 C8         -8.8972    1.4918   51.7648 C.2     1  ZINC000474251633    0.0400
      9 Cl9       -10.1605    2.6739   51.9074 Cl      1  ZINC000474251633   -0.0100
     10 C10        -7.6540    1.7897   51.1806 C.ar    1  ZINC000474251633   -0.0900
     11 C11        -7.2026    3.0122   50.6294 C.ar    1  ZINC000474251633   -0.0600
     12 C12        -5.9530    3.1120   50.1028 C.ar    1  ZINC000474251633   -0.1200
     13 C13        -5.0971    2.0178   50.0959 C.ar    1  ZINC000474251633   -0.0800
     14 C14        -5.5068    0.8168   50.6235 C.ar    1  ZINC000474251633   -0.0900
     15 C15        -6.7873    0.6896   51.1712 C.ar    1  ZINC000474251633   -0.1200
     16 S16        -7.5813   -0.6933   51.9158 S.3     1  ZINC000474251633    0.1700
     17 N17       -12.0144   -1.9460   56.8056 N.am    1  ZINC000474251633   -0.7200
     18 C18       -11.6596   -3.0846   57.6564 C.3     1  ZINC000474251633    0.2100
     19 C19       -10.4121   -2.7590   58.4368 C.2     1  ZINC000474251633    0.0500
     20 N20       -10.0772   -1.5784   58.8903 N.2     1  ZINC000474251633   -0.2700
     21 N21        -8.8521   -1.6980   59.5594 N.pl3   1  ZINC000474251633   -0.3600
     22 C22        -8.1199   -0.6129   60.2172 C.3     1  ZINC000474251633    0.1500
     23 C23        -8.3032    0.7012   59.4303 C.3     1  ZINC000474251633   -0.1400
     24 C24        -9.4722    1.4163   60.1523 C.3     1  ZINC000474251633   -0.1300
     25 C25        -9.2055    1.0882   61.6424 C.3     1  ZINC000474251633   -0.1200
     26 C26        -8.6936   -0.3668   61.6236 C.3     1  ZINC000474251633   -0.1400
     27 C27        -8.4659   -2.9891   59.4909 C.2     1  ZINC000474251633    0.0600
     28 C28        -9.4155   -3.6681   58.8067 C.2     1  ZINC000474251633   -0.2600
     29 H29       -12.4095   -0.8776   54.0193 H       1  ZINC000474251633    0.1100
     30 H30       -12.1622    0.2263   55.3935 H       1  ZINC000474251633    0.1100
     31 H31        -9.8717    0.5108   54.6559 H       1  ZINC000474251633    0.4100
     32 H32        -7.8556    3.8724   50.6266 H       1  ZINC000474251633    0.1300
     33 H33        -5.6226    4.0516   49.6853 H       1  ZINC000474251633    0.1400
     34 H34        -4.1071    2.1112   49.6744 H       1  ZINC000474251633    0.1400
     35 H35        -4.8379   -0.0312   50.6152 H       1  ZINC000474251633    0.1400
     36 H36       -12.7349   -1.3513   57.0666 H       1  ZINC000474251633    0.4100
     37 H37       -12.4770   -3.2905   58.3473 H       1  ZINC000474251633    0.0900
     38 H38       -11.4802   -3.9613   57.0340 H       1  ZINC000474251633    0.0900
     39 H39        -7.0614   -0.8642   60.2844 H       1  ZINC000474251633    0.1100
     40 H40        -7.3973    1.3053   59.4803 H       1  ZINC000474251633    0.0900
     41 H41        -8.5663    0.4916   58.3935 H       1  ZINC000474251633    0.0800
     42 H42        -9.4322    2.4919   59.9803 H       1  ZINC000474251633    0.0800
     43 H43       -10.4310    1.0083   59.8326 H       1  ZINC000474251633    0.0700
     44 H44        -8.4453    1.7549   62.0496 H       1  ZINC000474251633    0.0700
     45 H45       -10.1270    1.1611   62.2199 H       1  ZINC000474251633    0.0700
     46 H46        -9.5167   -1.0547   61.8167 H       1  ZINC000474251633    0.0700
     47 H47        -7.9133   -0.4979   62.3733 H       1  ZINC000474251633    0.0800
     48 H48        -7.5626   -3.4067   59.9108 H       1  ZINC000474251633    0.1700
     49 H49        -9.4031   -4.7241   58.5807 H       1  ZINC000474251633    0.1500
@<TRIPOS>BOND
     1     1     2    2
     2     2     3    1
     3     2    17   am
     4     3     4    1
     5     3    29    1
     6     3    30    1
     7     4     5   am
     8     4    31    1
     9     5     6    2
    10     5     7    1
    11     7    16    1
    12     7     8    2
    13     8     9    1
    14     8    10    1
    15    10    15   ar
    16    10    11   ar
    17    11    12   ar
    18    11    32    1
    19    12    13   ar
    20    12    33    1
    21    13    14   ar
    22    13    34    1
    23    14    15   ar
    24    14    35    1
    25    15    16    1
    26    17    18    1
    27    17    36    1
    28    18    19    1
    29    18    37    1
    30    18    38    1
    31    19    28    1
    32    19    20    2
    33    20    21    1
    34    21    22    1
    35    21    27    1
    36    22    26    1
    37    22    23    1
    38    22    39    1
    39    23    24    1
    40    23    40    1
    41    23    41    1
    42    24    25    1
    43    24    42    1
    44    24    43    1
    45    25    26    1
    46    25    44    1
    47    25    45    1
    48    26    46    1
    49    26    47    1
    50    27    28    2
    51    27    48    1
    52    28    49    1
@<TRIPOS>SUBSTRUCTURE
     1 ZINC000474251633        1 TEMP              0 ****  ****    0 ROOT


##########                                Name:    ZINC000114394234
##########                DOCK_Rotatable_Bonds:                   9
##########                         Heavy_Atoms:                  27
##########                    Molecular_Weight:             365.392
##########                DOCK_Rotatable_Bonds:                   9
##########                       Formal_Charge:           0.0300002
##########                     HBond_Acceptors:                   8
##########                        HBond_Donors:                   3
##########                         Heavy_Atoms:                  27
##########                          Grid_Score:          -37.410645
##########                     Grid_vdw_energy:          -34.458260
##########                      Grid_es_energy:           -2.952383
##########           Internal_energy_repulsive:           11.365789

@<TRIPOS>MOLECULE
ZINC000114394234
 46 48 1 0 0
SMALL
USER_CHARGES


@<TRIPOS>ATOM
      1 C1         -6.9240    3.0604   52.0506 C.3     1  ZINC000114394234   -0.1600
      2 C2         -7.0126    1.6378   51.4947 C.3     1  ZINC000114394234    0.1300
      3 H3         -7.6655    1.6288   50.6218 H       1  ZINC000114394234    0.1200
      4 N4         -5.6754    1.1800   51.1090 N.am    1  ZINC000114394234   -0.7100
      5 C5         -5.1056    1.6407   49.9778 C.2     1  ZINC000114394234    0.5200
      6 O6         -5.7005    2.4331   49.2784 O.2     1  ZINC000114394234   -0.5100
      7 C7         -3.7295    1.1712   49.5820 C.3     1  ZINC000114394234    0.0400
      8 O8         -2.7510    2.0770   50.0960 O.3     1  ZINC000114394234   -0.2900
      9 C9         -1.4535    1.8308   49.7752 C.ar    1  ZINC000114394234    0.1300
     10 C10        -0.4537    2.6826   50.2219 C.ar    1  ZINC000114394234   -0.2100
     11 C11         0.8645    2.4299   49.8947 C.ar    1  ZINC000114394234   -0.0800
     12 C12         1.1877    1.3295   49.1226 C.ar    1  ZINC000114394234   -0.1600
     13 C13         0.1930    0.4794   48.6757 C.ar    1  ZINC000114394234   -0.0800
     14 C14        -1.1261    0.7242   49.0053 C.ar    1  ZINC000114394234   -0.1500
     15 C15        -7.5728    0.7199   52.5504 C.2     1  ZINC000114394234    0.5100
     16 O16        -7.2904   -0.4597   52.5403 O.2     1  ZINC000114394234   -0.5100
     17 N17        -8.3876    1.2096   53.5058 N.am    1  ZINC000114394234   -0.6700
     18 C18        -8.9077    0.3572   54.4861 C.ar    1  ZINC000114394234    0.1300
     19 C19        -9.8482   -0.6056   54.1417 C.ar    1  ZINC000114394234   -0.1200
     20 C20       -10.3642   -1.4494   55.1073 C.ar    1  ZINC000114394234   -0.1000
     21 C21        -9.9484   -1.3399   56.4190 C.ar    1  ZINC000114394234   -0.0900
     22 C22        -9.0056   -0.3764   56.7736 C.ar    1  ZINC000114394234    0.0000
     23 C23        -8.5579   -0.2570   58.1835 C.2     1  ZINC000114394234    0.2700
     24 N24        -7.8732   -1.1608   58.8495 N.2     1  ZINC000114394234   -0.3000
     25 N25        -7.6660   -0.6421   60.1379 N.pl3   1  ZINC000114394234   -0.4800
     26 C26        -8.2536    0.5677   60.1622 C.2     1  ZINC000114394234    0.2700
     27 N27        -8.7795    0.7920   58.9871 N.2     1  ZINC000114394234   -0.5300
     28 C28        -8.4804    0.4693   55.8008 C.ar    1  ZINC000114394234   -0.0800
     29 H29        -6.2711    3.0695   52.9234 H       1  ZINC000114394234    0.0700
     30 H30        -6.5189    3.7244   51.2869 H       1  ZINC000114394234    0.0800
     31 H31        -7.9189    3.4010   52.3375 H       1  ZINC000114394234    0.0800
     32 H32        -5.2003    0.5453   51.6678 H       1  ZINC000114394234    0.4100
     33 H33        -3.5536    0.1761   49.9905 H       1  ZINC000114394234    0.1000
     34 H34        -3.6563    1.1358   48.4950 H       1  ZINC000114394234    0.1000
     35 H35        -0.7057    3.5428   50.8244 H       1  ZINC000114394234    0.1300
     36 H36         1.6432    3.0927   50.2422 H       1  ZINC000114394234    0.1300
     37 H37         2.2188    1.1338   48.8676 H       1  ZINC000114394234    0.1300
     38 H38         0.4480   -0.3794   48.0724 H       1  ZINC000114394234    0.1300
     39 H39        -1.9026    0.0598   48.6561 H       1  ZINC000114394234    0.1300
     40 H40        -8.6134    2.1529   53.5139 H       1  ZINC000114394234    0.4200
     41 H41       -10.1772   -0.6949   53.1170 H       1  ZINC000114394234    0.1300
     42 H42       -11.0951   -2.1963   54.8348 H       1  ZINC000114394234    0.1400
     43 H43       -10.3541   -2.0005   57.1710 H       1  ZINC000114394234    0.1400
     44 H44        -7.1924   -1.0720   60.8672 H       1  ZINC000114394234    0.4400
     45 H45        -8.2818    1.2405   61.0066 H       1  ZINC000114394234    0.2300
     46 H46        -7.7496    1.2173   56.0706 H       1  ZINC000114394234    0.1500
@<TRIPOS>BOND
     1     1     2    1
     2     1    29    1
     3     1    30    1
     4     1    31    1
     5     2     3    1
     6     2     4    1
     7     2    15    1
     8     4     5   am
     9     4    32    1
    10     5     6    2
    11     5     7    1
    12     7     8    1
    13     7    33    1
    14     7    34    1
    15     8     9    1
    16     9    14   ar
    17     9    10   ar
    18    10    11   ar
    19    10    35    1
    20    11    12   ar
    21    11    36    1
    22    12    13   ar
    23    12    37    1
    24    13    14   ar
    25    13    38    1
    26    14    39    1
    27    15    16    2
    28    15    17   am
    29    17    18    1
    30    17    40    1
    31    18    28   ar
    32    18    19   ar
    33    19    20   ar
    34    19    41    1
    35    20    21   ar
    36    20    42    1
    37    21    22   ar
    38    21    43    1
    39    22    23    1
    40    22    28   ar
    41    23    27    1
    42    23    24    2
    43    24    25    1
    44    25    26    1
    45    25    44    1
    46    26    27    2
    47    26    45    1
    48    28    46    1
@<TRIPOS>SUBSTRUCTURE
     1 ZINC000114394234        1 TEMP              0 ****  ****    0 ROOT


##########                                Name:    ZINC000428266315
##########                DOCK_Rotatable_Bonds:                  10
##########                         Heavy_Atoms:                  30
##########                    Molecular_Weight:             423.438
##########                DOCK_Rotatable_Bonds:                  10
##########                       Formal_Charge:          0.00999977
##########                     HBond_Acceptors:                  10
##########                        HBond_Donors:                   0
##########                         Heavy_Atoms:                  30
##########                          Grid_Score:          -37.307472
##########                     Grid_vdw_energy:          -36.834682
##########                      Grid_es_energy:           -0.472788
##########           Internal_energy_repulsive:            9.520991

@<TRIPOS>MOLECULE
ZINC000428266315
 54 56 1 0 0
SMALL
USER_CHARGES


@<TRIPOS>ATOM
      1 C1         -9.8569   -2.7328   60.1683 C.3     1  ZINC000428266315   -0.1500
      2 C2        -10.2588   -3.2070   58.7702 C.3     1  ZINC000428266315    0.0600
      3 O3        -11.6445   -2.9326   58.5542 O.3     1  ZINC000428266315   -0.3700
      4 C4        -12.1086   -3.2779   57.2476 C.3     1  ZINC000428266315    0.1800
      5 H5        -11.8764   -4.3233   57.0440 H       1  ZINC000428266315    0.0900
      6 C6        -13.6222   -3.0676   57.1718 C.3     1  ZINC000428266315   -0.1700
      7 C7        -11.4283   -2.4040   56.2256 C.2     1  ZINC000428266315    0.1700
      8 N8        -11.1131   -2.7430   55.0115 N.2     1  ZINC000428266315   -0.3500
      9 O9        -10.5772   -1.8157   54.4422 O.3     1  ZINC000428266315    0.0800
     10 C10       -10.4972   -0.7650   55.2641 C.2     1  ZINC000428266315    0.1900
     11 C11        -9.9011    0.5816   54.9439 C.3     1  ZINC000428266315    0.1500
     12 N12        -9.0571    0.4713   53.7466 N.3     1  ZINC000428266315   -0.5300
     13 C13        -9.6950    1.1171   52.5916 C.3     1  ZINC000428266315    0.0200
     14 C14        -7.7210    1.0307   53.9910 C.3     1  ZINC000428266315    0.1400
     15 C15        -6.9175    0.9871   52.7169 C.2     1  ZINC000428266315   -0.2300
     16 C16        -6.5044    2.0572   51.9992 C.2     1  ZINC000428266315    0.0800
     17 N17        -5.8168    1.5970   50.9331 N.pl3   1  ZINC000428266315   -0.3700
     18 C18        -5.1908    2.4160   49.8922 C.3     1  ZINC000428266315    0.1700
     19 C19        -3.6942    2.3939   50.0679 C.ar    1  ZINC000428266315   -0.0800
     20 C20        -3.0900    3.2608   50.9590 C.ar    1  ZINC000428266315   -0.1000
     21 C21        -1.7172    3.2406   51.1201 C.ar    1  ZINC000428266315   -0.0700
     22 C22        -0.9487    2.3529   50.3905 C.ar    1  ZINC000428266315   -0.1700
     23 C23         0.5479    2.3311   50.5658 C.3     1  ZINC000428266315    0.5100
     24 F24         1.1270    3.3109   49.7521 F       1  ZINC000428266315   -0.1700
     25 F25         0.8645    2.5893   51.9038 F       1  ZINC000428266315   -0.1800
     26 F26         1.0415    1.0731   50.2041 F       1  ZINC000428266315   -0.1800
     27 C27        -1.5531    1.4850   49.5003 C.ar    1  ZINC000428266315   -0.0700
     28 C28        -2.9262    1.5026   49.3421 C.ar    1  ZINC000428266315   -0.0800
     29 N29        -5.8071    0.1976   50.9977 N.2     1  ZINC000428266315   -0.2900
     30 C30        -6.4618   -0.1665   52.0704 C.2     1  ZINC000428266315    0.0600
     31 N31       -11.0410   -1.1279   56.4007 N.2     1  ZINC000428266315   -0.4600
     32 H32        -8.8000   -2.9422   60.3331 H       1  ZINC000428266315    0.0700
     33 H33       -10.0324   -1.6604   60.2526 H       1  ZINC000428266315    0.0600
     34 H34       -10.4521   -3.2582   60.9152 H       1  ZINC000428266315    0.0600
     35 H35        -9.6636   -2.6816   58.0233 H       1  ZINC000428266315    0.0500
     36 H36       -10.0834   -4.2795   58.6859 H       1  ZINC000428266315    0.0500
     37 H37       -13.8544   -2.0223   57.3754 H       1  ZINC000428266315    0.0700
     38 H38       -13.9762   -3.3310   56.1751 H       1  ZINC000428266315    0.0700
     39 H39       -14.1143   -3.6998   57.9110 H       1  ZINC000428266315    0.0700
     40 H40       -10.7011    1.2987   54.7598 H       1  ZINC000428266315    0.0800
     41 H41        -9.2961    0.9203   55.7849 H       1  ZINC000428266315    0.1200
     42 H42        -9.8569    2.1729   52.8092 H       1  ZINC000428266315    0.0400
     43 H43        -9.0491    1.0209   51.7190 H       1  ZINC000428266315    0.0800
     44 H44       -10.6525    0.6369   52.3898 H       1  ZINC000428266315    0.0600
     45 H45        -7.8153    2.0638   54.3259 H       1  ZINC000428266315    0.0500
     46 H46        -7.2166    0.4444   54.7590 H       1  ZINC000428266315    0.0900
     47 H47        -6.6914    3.0941   52.2369 H       1  ZINC000428266315    0.1700
     48 H48        -5.4474    2.0157   48.9114 H       1  ZINC000428266315    0.1000
     49 H49        -5.5508    3.4418   49.9715 H       1  ZINC000428266315    0.1100
     50 H50        -3.6904    3.9544   51.5290 H       1  ZINC000428266315    0.1300
     51 H51        -1.2451    3.9184   51.8159 H       1  ZINC000428266315    0.1400
     52 H52        -0.9527    0.7913   48.9305 H       1  ZINC000428266315    0.1400
     53 H53        -3.3984    0.8245   48.6466 H       1  ZINC000428266315    0.1400
     54 H54        -6.6284   -1.1826   52.3962 H       1  ZINC000428266315    0.1800
@<TRIPOS>BOND
     1     1     2    1
     2     1    32    1
     3     1    33    1
     4     1    34    1
     5     2     3    1
     6     2    35    1
     7     2    36    1
     8     3     4    1
     9     4     5    1
    10     4     6    1
    11     4     7    1
    12     6    37    1
    13     6    38    1
    14     6    39    1
    15     7    31    1
    16     7     8    2
    17     8     9    1
    18     9    10    1
    19    10    11    1
    20    10    31    2
    21    11    12    1
    22    11    40    1
    23    11    41    1
    24    12    13    1
    25    12    14    1
    26    13    42    1
    27    13    43    1
    28    13    44    1
    29    14    15    1
    30    14    45    1
    31    14    46    1
    32    15    30    1
    33    15    16    2
    34    16    17    1
    35    16    47    1
    36    17    18    1
    37    17    29    1
    38    18    19    1
    39    18    48    1
    40    18    49    1
    41    19    28   ar
    42    19    20   ar
    43    20    21   ar
    44    20    50    1
    45    21    22   ar
    46    21    51    1
    47    22    23    1
    48    22    27   ar
    49    23    24    1
    50    23    25    1
    51    23    26    1
    52    27    28   ar
    53    27    52    1
    54    28    53    1
    55    29    30    2
    56    30    54    1
@<TRIPOS>SUBSTRUCTURE
     1 ZINC000428266315        1 TEMP              0 ****  ****    0 ROOT


##########                                Name:    ZINC001124460178
##########                DOCK_Rotatable_Bonds:                  12
##########                         Heavy_Atoms:                  22
##########                    Molecular_Weight:             328.479
##########                DOCK_Rotatable_Bonds:                  12
##########                       Formal_Charge:          -0.0100003
##########                     HBond_Acceptors:                   7
##########                        HBond_Donors:                   2
##########                         Heavy_Atoms:                  22
##########                          Grid_Score:          -37.247353
##########                     Grid_vdw_energy:          -35.643196
##########                      Grid_es_energy:           -1.604157
##########           Internal_energy_repulsive:           17.242447

@<TRIPOS>MOLECULE
ZINC001124460178
 50 50 1 0 0
SMALL
USER_CHARGES


@<TRIPOS>ATOM
      1 C1          0.4473    2.8252   50.4380 C.3     1  ZINC001124460178   -0.0700
      2 C2         -0.6430    1.9813   49.8294 C.2     1  ZINC001124460178    0.3100
      3 N3         -0.3602    0.9860   49.0404 N.2     1  ZINC001124460178   -0.5000
      4 S4         -1.8553    0.3173   48.5865 S.3     1  ZINC001124460178    0.1800
      5 C5         -2.7905    1.4375   49.5027 C.2     1  ZINC001124460178    0.3400
      6 N6         -4.1683    1.4947   49.6098 N.pl3   1  ZINC001124460178   -0.6600
      7 C7         -4.7939    2.4779   50.4976 C.3     1  ZINC001124460178    0.0900
      8 C8         -6.2992    2.2141   50.5706 C.3     1  ZINC001124460178    0.0800
      9 H9         -6.7525    2.8930   51.2929 H       1  ZINC001124460178    0.1200
     10 O10        -6.8832    2.4281   49.2841 O.3     1  ZINC001124460178   -0.5500
     11 C11        -6.5429    0.7681   51.0071 C.3     1  ZINC001124460178    0.0900
     12 N12        -7.2192    0.7577   52.3067 N.am    1  ZINC001124460178   -0.6100
     13 C13        -6.7251    1.6030   53.3965 C.3     1  ZINC001124460178    0.0800
     14 C14        -8.2959   -0.0296   52.4997 C.2     1  ZINC001124460178    0.5100
     15 O15        -8.7041   -0.7305   51.5981 O.2     1  ZINC001124460178   -0.5400
     16 C16        -8.9927   -0.0390   53.8360 C.3     1  ZINC001124460178   -0.1400
     17 C17       -10.3702   -0.6885   53.6883 C.3     1  ZINC001124460178   -0.1100
     18 C18       -11.0974   -0.6533   55.0340 C.3     1  ZINC001124460178   -0.1200
     19 C19       -10.4059   -1.6049   56.0123 C.3     1  ZINC001124460178   -0.1200
     20 C20       -11.3030   -1.8224   57.2325 C.3     1  ZINC001124460178   -0.1000
     21 C21       -12.4214   -2.8033   56.8749 C.3     1  ZINC001124460178   -0.1500
     22 C22       -10.4708   -2.3946   58.3818 C.3     1  ZINC001124460178   -0.1500
     23 N23        -1.9082    2.2236   50.0827 N.2     1  ZINC001124460178   -0.5800
     24 H24         0.7503    2.3943   51.3923 H       1  ZINC001124460178    0.0900
     25 H25         1.3035    2.8539   49.7641 H       1  ZINC001124460178    0.0900
     26 H26         0.0765    3.8377   50.5979 H       1  ZINC001124460178    0.0900
     27 H27        -4.7204    0.8837   49.0971 H       1  ZINC001124460178    0.4200
     28 H28        -4.3616    2.3942   51.4946 H       1  ZINC001124460178    0.0800
     29 H29        -4.6193    3.4813   50.1090 H       1  ZINC001124460178    0.0900
     30 H30        -6.6255    3.2626   48.8690 H       1  ZINC001124460178    0.3800
     31 H31        -7.1677    0.2659   50.2685 H       1  ZINC001124460178    0.0900
     32 H32        -5.5888    0.2479   51.0900 H       1  ZINC001124460178    0.1000
     33 H33        -7.2163    2.5751   53.3535 H       1  ZINC001124460178    0.0600
     34 H34        -6.9434    1.1275   54.3527 H       1  ZINC001124460178    0.0800
     35 H35        -5.6480    1.7352   53.2939 H       1  ZINC001124460178    0.0800
     36 H36        -8.3982   -0.6067   54.5518 H       1  ZINC001124460178    0.0900
     37 H37        -9.1099    0.9846   54.1919 H       1  ZINC001124460178    0.0900
     38 H38       -10.9521   -0.1415   52.9464 H       1  ZINC001124460178    0.0700
     39 H39       -10.2515   -1.7230   53.3663 H       1  ZINC001124460178    0.0700
     40 H40       -11.0725    0.3603   55.4340 H       1  ZINC001124460178    0.0600
     41 H41       -12.1330   -0.9640   54.8956 H       1  ZINC001124460178    0.0600
     42 H42       -10.2224   -2.5605   55.5213 H       1  ZINC001124460178    0.0600
     43 H43        -9.4576   -1.1722   56.3311 H       1  ZINC001124460178    0.0600
     44 H44       -11.7382   -0.8707   57.5377 H       1  ZINC001124460178    0.0700
     45 H45       -11.9861   -3.7550   56.5697 H       1  ZINC001124460178    0.0500
     46 H46       -13.0605   -2.9582   57.7442 H       1  ZINC001124460178    0.0500
     47 H47       -13.0143   -2.3957   56.0562 H       1  ZINC001124460178    0.0500
     48 H48        -9.6741   -1.6957   58.6365 H       1  ZINC001124460178    0.0600
     49 H49       -11.1099   -2.5494   59.2512 H       1  ZINC001124460178    0.0500
     50 H50       -10.0356   -3.3461   58.0767 H       1  ZINC001124460178    0.0500
@<TRIPOS>BOND
     1     1     2    1
     2     1    24    1
     3     1    25    1
     4     1    26    1
     5     2    23    1
     6     2     3    2
     7     3     4    1
     8     4     5    1
     9     5     6    1
    10     5    23    2
    11     6     7    1
    12     6    27    1
    13     7     8    1
    14     7    28    1
    15     7    29    1
    16     8     9    1
    17     8    10    1
    18     8    11    1
    19    10    30    1
    20    11    12    1
    21    11    31    1
    22    11    32    1
    23    12    13    1
    24    12    14   am
    25    13    33    1
    26    13    34    1
    27    13    35    1
    28    14    15    2
    29    14    16    1
    30    16    17    1
    31    16    36    1
    32    16    37    1
    33    17    18    1
    34    17    38    1
    35    17    39    1
    36    18    19    1
    37    18    40    1
    38    18    41    1
    39    19    20    1
    40    19    42    1
    41    19    43    1
    42    20    21    1
    43    20    22    1
    44    20    44    1
    45    21    45    1
    46    21    46    1
    47    21    47    1
    48    22    48    1
    49    22    49    1
    50    22    50    1
@<TRIPOS>SUBSTRUCTURE
     1 ZINC001124460178        1 TEMP              0 ****  ****    0 ROOT


##########                                Name:    ZINC000013809319
##########                DOCK_Rotatable_Bonds:                  10
##########                         Heavy_Atoms:                  30
##########                    Molecular_Weight:             407.469
##########                DOCK_Rotatable_Bonds:                  10
##########                       Formal_Charge:         -0.00999978
##########                     HBond_Acceptors:                   7
##########                        HBond_Donors:                   1
##########                         Heavy_Atoms:                  30
##########                          Grid_Score:          -37.182259
##########                     Grid_vdw_energy:          -36.362167
##########                      Grid_es_energy:           -0.820091
##########           Internal_energy_repulsive:           17.037367

@<TRIPOS>MOLECULE
ZINC000013809319
 55 57 1 0 0
SMALL
USER_CHARGES


@<TRIPOS>ATOM
      1 C1         -4.5204    3.2816   50.8218 C.3     1  ZINC000013809319   -0.1500
      2 C2         -4.6649    2.1003   49.8601 C.3     1  ZINC000013809319    0.0500
      3 O3         -6.0441    1.9175   49.5342 O.3     1  ZINC000013809319   -0.3100
      4 C4         -6.8550    1.4570   50.5213 C.ar    1  ZINC000013809319    0.1500
      5 C5         -7.9934    2.1716   50.8728 C.ar    1  ZINC000013809319   -0.2200
      6 C6         -8.8187    1.7071   51.8736 C.ar    1  ZINC000013809319   -0.0300
      7 C7         -8.5100    0.5170   52.5344 C.ar    1  ZINC000013809319   -0.1100
      8 C8         -9.3944    0.0146   53.6096 C.2     1  ZINC000013809319    0.2300
      9 C9         -9.8260    0.8665   54.6133 C.2     1  ZINC000013809319   -0.2900
     10 C10       -10.6653    0.3480   55.6147 C.2     1  ZINC000013809319    0.5300
     11 O11       -11.0702    1.0616   56.5180 O.2     1  ZINC000013809319   -0.5400
     12 N12       -11.0150   -0.9541   55.5573 N.am    1  ZINC000013809319   -0.5100
     13 C13       -11.8890   -1.5201   56.5878 C.3     1  ZINC000013809319    0.0700
     14 C14       -11.0631   -2.3162   57.5652 C.2     1  ZINC000013809319    0.5000
     15 O15       -11.1837   -3.5217   57.6204 O.2     1  ZINC000013809319   -0.5200
     16 N16       -10.1903   -1.6883   58.3779 N.am    1  ZINC000013809319   -0.7200
     17 C17        -9.3860   -2.4623   59.3269 C.3     1  ZINC000013809319    0.1300
     18 C18        -8.0623   -1.7388   59.5823 C.3     1  ZINC000013809319   -0.0800
     19 C19        -8.3375   -0.3880   60.1912 C.ar    1  ZINC000013809319   -0.1200
     20 C20        -8.8127   -0.2969   61.4850 C.ar    1  ZINC000013809319   -0.0800
     21 C21        -9.0660    0.9424   62.0440 C.ar    1  ZINC000013809319   -0.1500
     22 C22        -8.8440    2.0927   61.3102 C.ar    1  ZINC000013809319   -0.0800
     23 C23        -8.3684    2.0070   60.0158 C.ar    1  ZINC000013809319   -0.2100
     24 C24        -8.1086    0.7653   59.4545 C.ar    1  ZINC000013809319    0.1300
     25 O25        -7.6407    0.6782   58.1816 O.3     1  ZINC000013809319   -0.3100
     26 C26        -7.4417    1.9061   57.4782 C.3     1  ZINC000013809319    0.0300
     27 C27       -10.5643   -1.7365   54.5561 C.2     1  ZINC000013809319    0.3900
     28 N28        -9.7893   -1.2705   53.6164 N.2     1  ZINC000013809319   -0.5300
     29 C29        -7.3655   -0.1983   52.1786 C.ar    1  ZINC000013809319   -0.0500
     30 C30        -6.5475    0.2694   51.1733 C.ar    1  ZINC000013809319   -0.1600
     31 H31        -4.9045    4.1849   50.3480 H       1  ZINC000013809319    0.0700
     32 H32        -5.0852    3.0802   51.7320 H       1  ZINC000013809319    0.0700
     33 H33        -3.4683    3.4210   51.0705 H       1  ZINC000013809319    0.0800
     34 H34        -4.1000    2.3017   48.9499 H       1  ZINC000013809319    0.0600
     35 H35        -4.2807    1.1970   50.3339 H       1  ZINC000013809319    0.0600
     36 H36        -8.2315    3.0926   50.3612 H       1  ZINC000013809319    0.1300
     37 H37        -9.7034    2.2633   52.1466 H       1  ZINC000013809319    0.1400
     38 H38        -9.5246    1.9036   54.6264 H       1  ZINC000013809319    0.1600
     39 H39       -12.3986   -0.7137   57.1151 H       1  ZINC000013809319    0.1300
     40 H40       -12.6270   -2.1721   56.1203 H       1  ZINC000013809319    0.1300
     41 H41       -10.0946   -0.7239   58.3346 H       1  ZINC000013809319    0.4000
     42 H42        -9.9307   -2.5653   60.2653 H       1  ZINC000013809319    0.0700
     43 H43        -9.1859   -3.4503   58.9123 H       1  ZINC000013809319    0.0700
     44 H44        -7.4521   -2.3283   60.2665 H       1  ZINC000013809319    0.0800
     45 H45        -7.5304   -1.6107   58.6395 H       1  ZINC000013809319    0.0800
     46 H46        -8.9869   -1.1941   62.0602 H       1  ZINC000013809319    0.1300
     47 H47        -9.4381    1.0115   63.0556 H       1  ZINC000013809319    0.1300
     48 H48        -9.0429    3.0594   61.7489 H       1  ZINC000013809319    0.1300
     49 H49        -8.1955    2.9060   59.4429 H       1  ZINC000013809319    0.1300
     50 H50        -6.7178    2.5192   58.0149 H       1  ZINC000013809319    0.0600
     51 H51        -7.0670    1.6944   56.4767 H       1  ZINC000013809319    0.1000
     52 H52        -8.3886    2.4411   57.4062 H       1  ZINC000013809319    0.0600
     53 H53       -10.8561   -2.7760   54.5294 H       1  ZINC000013809319    0.2000
     54 H54        -7.1236   -1.1195   52.6878 H       1  ZINC000013809319    0.1400
     55 H55        -5.6619   -0.2838   50.8972 H       1  ZINC000013809319    0.1400
@<TRIPOS>BOND
     1     1     2    1
     2     1    31    1
     3     1    32    1
     4     1    33    1
     5     2     3    1
     6     2    34    1
     7     2    35    1
     8     3     4    1
     9     4    30   ar
    10     4     5   ar
    11     5     6   ar
    12     5    36    1
    13     6     7   ar
    14     6    37    1
    15     7     8    1
    16     7    29   ar
    17     8    28    1
    18     8     9    2
    19     9    10    1
    20     9    38    1
    21    10    11    2
    22    10    12   am
    23    12    13    1
    24    12    27    1
    25    13    14    1
    26    13    39    1
    27    13    40    1
    28    14    15    2
    29    14    16   am
    30    16    17    1
    31    16    41    1
    32    17    18    1
    33    17    42    1
    34    17    43    1
    35    18    19    1
    36    18    44    1
    37    18    45    1
    38    19    24   ar
    39    19    20   ar
    40    20    21   ar
    41    20    46    1
    42    21    22   ar
    43    21    47    1
    44    22    23   ar
    45    22    48    1
    46    23    24   ar
    47    23    49    1
    48    24    25    1
    49    25    26    1
    50    26    50    1
    51    26    51    1
    52    26    52    1
    53    27    28    2
    54    27    53    1
    55    29    30   ar
    56    29    54    1
    57    30    55    1
@<TRIPOS>SUBSTRUCTURE
     1 ZINC000013809319        1 TEMP              0 ****  ****    0 ROOT


##########                                Name:     oleObject17.pdb
##########                DOCK_Rotatable_Bonds:                   8
##########                         Heavy_Atoms:                  29
##########                    Molecular_Weight:             435.393
##########                DOCK_Rotatable_Bonds:                   8
##########                       Formal_Charge:         0.000400059
##########                     HBond_Acceptors:                   6
##########                        HBond_Donors:                   0
##########                         Heavy_Atoms:                  29
##########                          Grid_Score:          -37.174343
##########                     Grid_vdw_energy:          -37.262135
##########                      Grid_es_energy:            0.087793
##########           Internal_energy_repulsive:           17.700827

@<TRIPOS>MOLECULE
oleObject17.pdb
 57 59 1 0 0
SMALL
NO_CHARGES


@<TRIPOS>ATOM
      1 C          -9.9789    0.4130   57.0634 C.3     1  UNL         0.0391
      2 C          -9.8790   -1.0206   57.5891 C.ar    1  UNL        -0.0277
      3 C          -9.1038   -1.3701   58.7235 C.ar    1  UNL        -0.0463
      4 C          -9.0359   -2.7183   59.1270 C.ar    1  UNL        -0.0590
      5 C          -9.7277   -3.7140   58.4222 C.ar    1  UNL        -0.0620
      6 C         -10.5083   -3.3677   57.3115 C.ar    1  UNL        -0.0619
      7 C         -10.5861   -2.0279   56.9033 C.ar    1  UNL        -0.0572
      8 C          -8.3388   -0.3307   59.5356 C.3     1  UNL        -0.0394
      9 N         -10.1590    0.4726   55.5970 N.am    1  UNL        -0.3003
     10 C          -9.0642    0.4147   54.7349 C.2     1  UNL         0.2175
     11 O          -7.9904    0.0063   55.1436 O.2     1  UNL        -0.2772
     12 C          -9.3706    0.4858   53.2155 C.3     1  UNL         0.0384
     13 C          -8.3067   -0.2428   52.3559 C.3     1  UNL        -0.0289
     14 C          -6.9611    0.5082   52.3698 C.3     1  UNL        -0.0010
     15 N          -7.1054    1.9033   51.8989 N.4     1  UNL        -0.3010
     16 C          -8.1467    2.6852   52.6060 C.3     1  UNL        -0.0010
     17 C          -9.5049    1.9421   52.6925 C.3     1  UNL        -0.0289
     18 C          -5.8131    2.6140   51.7657 C.3     1  UNL         0.0222
     19 C          -4.9272    2.0793   50.6165 C.3     1  UNL         0.0661
     20 O          -3.6659    2.7677   50.6586 O.3     1  UNL        -0.3432
     21 C          -2.5199    2.2688   50.0694 C.ar    1  UNL         0.0937
     22 C          -2.5670    1.2692   49.0737 C.ar    1  UNL        -0.0288
     23 C          -1.3802    0.7934   48.4925 C.ar    1  UNL        -0.0408
     24 C          -0.1409    1.3093   48.9029 C.ar    1  UNL         0.0422
     25 C          -0.0852    2.3004   49.8952 C.ar    1  UNL        -0.0221
     26 C          -1.2708    2.7789   50.4777 C.ar    1  UNL         0.0723
     27 CL         -1.1666    4.0216   51.7107 Cl      1  UNL        -0.0814
     28 CL          1.3368    0.7149   48.1762 Cl      1  UNL        -0.0843
     29 C         -11.5471    0.6037   55.1177 C.3     1  UNL         0.0031
     30 H          -9.0862    0.9924   57.3235 H       1  UNL         0.0520
     31 H         -10.8258    0.9032   57.5597 H       1  UNL         0.0520
     32 H          -8.4425   -2.9996   59.9923 H       1  UNL         0.0626
     33 H          -9.6640   -4.7505   58.7412 H       1  UNL         0.0623
     34 H         -11.0504   -4.1352   56.7666 H       1  UNL         0.0623
     35 H         -11.1906   -1.7718   56.0383 H       1  UNL         0.0626
     36 H          -9.0011    0.4773   59.8697 H       1  UNL         0.0280
     37 H          -7.5265    0.1131   58.9489 H       1  UNL         0.0280
     38 H          -7.8886   -0.7698   60.4344 H       1  UNL         0.0280
     39 H         -10.3369   -0.0076   53.0573 H       1  UNL         0.0402
     40 H          -8.6639   -0.3105   51.3202 H       1  UNL         0.0288
     41 H          -8.1581   -1.2726   52.6973 H       1  UNL         0.0288
     42 H          -6.2472   -0.0294   51.7326 H       1  UNL         0.0431
     43 H          -6.5697    0.4966   53.3933 H       1  UNL         0.0431
     44 H          -8.3018    3.6417   52.0907 H       1  UNL         0.0431
     45 H          -7.8077    2.9195   53.6213 H       1  UNL         0.0431
     46 H          -9.9488    1.9160   51.6889 H       1  UNL         0.0288
     47 H         -10.2000    2.5089   53.3251 H       1  UNL         0.0288
     48 H          -5.2537    2.5369   52.7068 H       1  UNL         0.0455
     49 H          -6.0049    3.6803   51.5895 H       1  UNL         0.0455
     50 H          -5.4127    2.2666   49.6519 H       1  UNL         0.0586
     51 H          -4.7724    0.9998   50.7326 H       1  UNL         0.0586
     52 H          -3.5134    0.8533   48.7435 H       1  UNL         0.0651
     53 H          -1.4227    0.0248   47.7259 H       1  UNL         0.0639
     54 H           0.8746    2.6985   50.2122 H       1  UNL         0.0655
     55 H         -12.1351    1.2094   55.8188 H       1  UNL         0.0433
     56 H         -12.0103   -0.3863   55.0289 H       1  UNL         0.0433
     57 H         -11.5653    1.1012   54.1403 H       1  UNL         0.0433
@<TRIPOS>BOND
     1     1     2    1
     2     1     9    1
     3     1    30    1
     4     1    31    1
     5     2     3   ar
     6     2     7   ar
     7     3     4   ar
     8     3     8    1
     9     4     5   ar
    10     4    32    1
    11     5     6   ar
    12     5    33    1
    13     6     7   ar
    14     6    34    1
    15     7    35    1
    16     8    36    1
    17     8    37    1
    18     8    38    1
    19     9    10   am
    20     9    29    1
    21    10    11    2
    22    10    12    1
    23    12    13    1
    24    12    17    1
    25    12    39    1
    26    13    14    1
    27    13    40    1
    28    13    41    1
    29    14    15    1
    30    14    42    1
    31    14    43    1
    32    15    16    1
    33    15    18    1
    34    16    17    1
    35    16    44    1
    36    16    45    1
    37    17    46    1
    38    17    47    1
    39    18    19    1
    40    18    48    1
    41    18    49    1
    42    19    20    1
    43    19    50    1
    44    19    51    1
    45    20    21    1
    46    21    22   ar
    47    21    26   ar
    48    22    23   ar
    49    22    52    1
    50    23    24   ar
    51    23    53    1
    52    24    25   ar
    53    24    28    1
    54    25    26   ar
    55    25    54    1
    56    26    27    1
    57    29    55    1
    58    29    56    1
    59    29    57    1
@<TRIPOS>SUBSTRUCTURE
     1 UNL         1 TEMP              0 ****  ****    0 ROOT


##########                                Name:    ZINC000058174787
##########                DOCK_Rotatable_Bonds:                   9
##########                         Heavy_Atoms:                  27
##########                    Molecular_Weight:             413.882
##########                DOCK_Rotatable_Bonds:                   9
##########                       Formal_Charge:           0.0200002
##########                     HBond_Acceptors:                  10
##########                        HBond_Donors:                   1
##########                         Heavy_Atoms:                  27
##########                          Grid_Score:          -37.089500
##########                     Grid_vdw_energy:          -35.773617
##########                      Grid_es_energy:           -1.315882
##########           Internal_energy_repulsive:           11.030269

@<TRIPOS>MOLECULE
ZINC000058174787
 47 48 1 0 0
SMALL
USER_CHARGES


@<TRIPOS>ATOM
      1 C1         -7.4932    2.8017   60.4451 C.3     1  ZINC000058174787   -0.0700
      2 C2         -7.9293    1.4785   59.8704 C.2     1  ZINC000058174787    0.2100
      3 N3         -8.5627    0.5395   60.5186 N.2     1  ZINC000058174787   -0.4200
      4 C4         -8.7879   -0.4932   59.6928 C.2     1  ZINC000058174787   -0.5600
      5 S5         -9.6111   -1.9937   60.1120 S.o2    1  ZINC000058174787    2.7400
      6 O6         -8.6646   -3.0367   59.9237 O.2     1  ZINC000058174787   -0.9500
      7 O7        -10.2717   -1.7572   61.3476 O.2     1  ZINC000058174787   -0.9600
      8 N8        -10.8001   -2.2321   58.9842 N.am    1  ZINC000058174787   -1.1100
      9 C9        -10.4504   -2.3628   57.5676 C.3     1  ZINC000058174787    0.1300
     10 C10       -11.1505   -1.2635   56.7660 C.3     1  ZINC000058174787   -0.1200
     11 C11       -11.0207   -1.5556   55.2934 C.2     1  ZINC000058174787    0.4700
     12 O12       -11.0617   -2.6965   54.8978 O.2     1  ZINC000058174787   -0.5000
     13 O13       -10.8598   -0.5482   54.4209 O.3     1  ZINC000058174787   -0.3300
     14 C14        -9.5054   -0.2706   53.9771 C.3     1  ZINC000058174787    0.0400
     15 H15        -8.8283   -1.0206   54.3857 H       1  ZINC000058174787    0.1200
     16 C16        -9.0834    1.1170   54.4639 C.3     1  ZINC000058174787   -0.1700
     17 C17        -9.4518   -0.3126   52.4715 C.2     1  ZINC000058174787    0.4000
     18 O18       -10.3171   -0.8917   51.8499 O.2     1  ZINC000058174787   -0.4200
     19 C19        -8.3499    0.3489   51.7561 C.ar    1  ZINC000058174787   -0.1600
     20 C20        -8.5537    1.5913   51.1462 C.ar    1  ZINC000058174787   -0.0600
     21 C21        -7.5165    2.2054   50.4780 C.ar    1  ZINC000058174787   -0.1200
     22 C22        -6.2742    1.5953   50.4095 C.ar    1  ZINC000058174787    0.0000
     23 Cl23       -4.9735    2.3766   49.5662 Cl      1  ZINC000058174787   -0.0500
     24 C24        -6.0652    0.3647   51.0113 C.ar    1  ZINC000058174787   -0.1200
     25 C25        -7.0916   -0.2587   51.6874 C.ar    1  ZINC000058174787   -0.0400
     26 C26        -8.2746   -0.1823   58.4873 C.2     1  ZINC000058174787    0.0700
     27 N27        -7.7345    1.0706   58.5979 N.pl3   1  ZINC000058174787   -0.4500
     28 C28        -7.0630    1.8246   57.5364 C.3     1  ZINC000058174787    0.0600
     29 H29        -8.2886    3.5351   60.3130 H       1  ZINC000058174787    0.0900
     30 H30        -7.2805    2.6839   61.5077 H       1  ZINC000058174787    0.1000
     31 H31        -6.5951    3.1431   59.9304 H       1  ZINC000058174787    0.0800
     32 H32       -11.7280   -2.2852   59.2616 H       1  ZINC000058174787    0.4200
     33 H33        -9.3710   -2.2672   57.4494 H       1  ZINC000058174787    0.0900
     34 H34       -10.7710   -3.3386   57.2027 H       1  ZINC000058174787    0.0900
     35 H35       -12.2054   -1.2309   57.0385 H       1  ZINC000058174787    0.1200
     36 H36       -10.6881   -0.3016   56.9877 H       1  ZINC000058174787    0.1200
     37 H37        -9.7606    1.8669   54.0552 H       1  ZINC000058174787    0.0800
     38 H38        -9.1222    1.1473   55.5528 H       1  ZINC000058174787    0.0800
     39 H39        -8.0667    1.3253   54.1307 H       1  ZINC000058174787    0.0800
     40 H40        -9.5214    2.0677   51.1984 H       1  ZINC000058174787    0.1400
     41 H41        -7.6724    3.1644   50.0063 H       1  ZINC000058174787    0.1400
     42 H42        -5.0944   -0.1050   50.9539 H       1  ZINC000058174787    0.1400
     43 H43        -6.9272   -1.2176   52.1562 H       1  ZINC000058174787    0.1500
     44 H44        -8.2899   -0.8009   57.6021 H       1  ZINC000058174787    0.1900
     45 H45        -7.7964    2.4236   56.9966 H       1  ZINC000058174787    0.0900
     46 H46        -6.3114    2.4801   57.9762 H       1  ZINC000058174787    0.1000
     47 H47        -6.5817    1.1312   56.8469 H       1  ZINC000058174787    0.0900
@<TRIPOS>BOND
     1     1     2    1
     2     1    29    1
     3     1    30    1
     4     1    31    1
     5     2    27    1
     6     2     3    2
     7     3     4    1
     8     4     5    1
     9     4    26    2
    10     5     6    2
    11     5     7    2
    12     5     8   am
    13     8     9    1
    14     8    32    1
    15     9    10    1
    16     9    33    1
    17     9    34    1
    18    10    11    1
    19    10    35    1
    20    10    36    1
    21    11    12    2
    22    11    13    1
    23    13    14    1
    24    14    15    1
    25    14    16    1
    26    14    17    1
    27    16    37    1
    28    16    38    1
    29    16    39    1
    30    17    18    2
    31    17    19    1
    32    19    25   ar
    33    19    20   ar
    34    20    21   ar
    35    20    40    1
    36    21    22   ar
    37    21    41    1
    38    22    23    1
    39    22    24   ar
    40    24    25   ar
    41    24    42    1
    42    25    43    1
    43    26    27    1
    44    26    44    1
    45    27    28    1
    46    28    45    1
    47    28    46    1
    48    28    47    1
@<TRIPOS>SUBSTRUCTURE
     1 ZINC000058174787        1 TEMP              0 ****  ****    0 ROOT


##########                                Name:    ZINC000484900616
##########                DOCK_Rotatable_Bonds:                  10
##########                         Heavy_Atoms:                  29
##########                    Molecular_Weight:             415.556
##########                DOCK_Rotatable_Bonds:                  10
##########                       Formal_Charge:        -1.49012e-08
##########                     HBond_Acceptors:                   7
##########                        HBond_Donors:                   1
##########                         Heavy_Atoms:                  29
##########                          Grid_Score:          -37.009415
##########                     Grid_vdw_energy:          -36.329720
##########                      Grid_es_energy:           -0.679695
##########           Internal_energy_repulsive:            8.535889

@<TRIPOS>MOLECULE
ZINC000484900616
 58 60 1 0 0
SMALL
USER_CHARGES


@<TRIPOS>ATOM
      1 C1        -14.6056   -5.0755   56.9198 C.3     1  ZINC000484900616   -0.1500
      2 C2        -15.3171   -4.1719   57.9289 C.3     1  ZINC000484900616    0.0600
      3 O3        -14.3671   -3.2247   58.4842 O.3     1  ZINC000484900616   -0.3400
      4 C4        -14.8547   -2.2904   59.3247 C.2     1  ZINC000484900616    0.5500
      5 O5        -16.0135   -2.3449   59.6876 O.2     1  ZINC000484900616   -0.5000
      6 C6        -13.9844   -1.2049   59.8028 C.2     1  ZINC000484900616    0.0200
      7 C7        -14.4430   -0.1447   60.5070 C.2     1  ZINC000484900616   -0.2400
      8 S8        -13.1282    0.8846   60.8728 S.3     1  ZINC000484900616    0.2900
      9 C9        -12.0432   -0.1581   60.0655 C.2     1  ZINC000484900616    0.0300
     10 C10       -10.5605    0.0791   59.9367 C.3     1  ZINC000484900616    0.1500
     11 H11       -10.3489    1.1480   59.9094 H       1  ZINC000484900616    0.0900
     12 C12        -9.8033   -0.5907   61.1104 C.3     1  ZINC000484900616   -0.1200
     13 C13        -8.3918   -0.7915   60.4986 C.3     1  ZINC000484900616   -0.1400
     14 C14        -8.6963   -1.1191   59.0217 C.3     1  ZINC000484900616    0.0500
     15 N15       -10.0373   -0.5804   58.7213 N.3     1  ZINC000484900616   -0.5100
     16 C16        -9.9876    0.3552   57.5898 C.3     1  ZINC000484900616    0.0300
     17 C17        -9.8905   -0.4199   56.3010 C.2     1  ZINC000484900616    0.5200
     18 O18       -10.1218   -1.6104   56.2905 O.2     1  ZINC000484900616   -0.5100
     19 N19        -9.5466    0.2100   55.1602 N.am    1  ZINC000484900616   -0.7300
     20 C20        -9.4539   -0.5432   53.9070 C.3     1  ZINC000484900616    0.1900
     21 H21        -8.9701   -1.5018   54.0941 H       1  ZINC000484900616    0.1000
     22 C22       -10.8590   -0.7810   53.3500 C.3     1  ZINC000484900616   -0.1600
     23 C23        -8.6437    0.2419   52.9079 C.ar    1  ZINC000484900616   -0.1000
     24 C24        -7.6751   -0.3923   52.1525 C.ar    1  ZINC000484900616   -0.1100
     25 C25        -6.9319    0.3278   51.2360 C.ar    1  ZINC000484900616   -0.1100
     26 C26        -7.1576    1.6820   51.0745 C.ar    1  ZINC000484900616   -0.0800
     27 C27        -6.3471    2.4672   50.0757 C.3     1  ZINC000484900616   -0.0900
     28 C28        -4.9248    2.6545   50.6075 C.3     1  ZINC000484900616   -0.1500
     29 C29        -8.1272    2.3159   51.8289 C.ar    1  ZINC000484900616   -0.1100
     30 C30        -8.8730    1.5950   52.7427 C.ar    1  ZINC000484900616   -0.1000
     31 N31       -12.6663   -1.1765   59.5870 N.2     1  ZINC000484900616   -0.4300
     32 H32       -14.1885   -4.4666   56.1176 H       1  ZINC000484900616    0.0700
     33 H33       -13.8027   -5.6171   57.4199 H       1  ZINC000484900616    0.0700
     34 H34       -15.3188   -5.7867   56.5027 H       1  ZINC000484900616    0.0800
     35 H35       -16.1200   -3.6304   57.4287 H       1  ZINC000484900616    0.0700
     36 H36       -15.7343   -4.7809   58.7309 H       1  ZINC000484900616    0.0700
     37 H37       -15.4711    0.0237   60.7915 H       1  ZINC000484900616    0.1900
     38 H38        -9.7630    0.0697   61.9767 H       1  ZINC000484900616    0.0900
     39 H39       -10.2554   -1.5475   61.3714 H       1  ZINC000484900616    0.0800
     40 H40        -7.8040    0.1231   60.5772 H       1  ZINC000484900616    0.0700
     41 H41        -7.8779   -1.6236   60.9799 H       1  ZINC000484900616    0.0800
     42 H42        -7.9556   -0.6466   58.3766 H       1  ZINC000484900616    0.0600
     43 H43        -8.6870   -2.1987   58.8718 H       1  ZINC000484900616    0.0900
     44 H44       -10.8922    0.9631   57.5810 H       1  ZINC000484900616    0.1100
     45 H45        -9.1161    1.0020   57.6914 H       1  ZINC000484900616    0.0700
     46 H46        -9.3603    1.1618   55.1689 H       1  ZINC000484900616    0.4000
     47 H47       -10.7901   -1.3413   52.4176 H       1  ZINC000484900616    0.0700
     48 H48       -11.4450   -1.3489   54.0726 H       1  ZINC000484900616    0.0700
     49 H49       -11.3428    0.1776   53.1629 H       1  ZINC000484900616    0.0600
     50 H50        -7.4988   -1.4503   52.2787 H       1  ZINC000484900616    0.1200
     51 H51        -6.1747   -0.1675   50.6464 H       1  ZINC000484900616    0.1200
     52 H52        -6.3132    1.9263   49.1299 H       1  ZINC000484900616    0.0700
     53 H53        -6.8083    3.4425   49.9201 H       1  ZINC000484900616    0.0700
     54 H54        -4.9589    3.1954   51.5532 H       1  ZINC000484900616    0.0600
     55 H55        -4.4637    1.6792   50.7631 H       1  ZINC000484900616    0.0600
     56 H56        -4.3387    3.2225   49.8851 H       1  ZINC000484900616    0.0600
     57 H57        -8.3037    3.3739   51.7025 H       1  ZINC000484900616    0.1200
     58 H58        -9.6305    2.0903   53.3321 H       1  ZINC000484900616    0.1200
@<TRIPOS>BOND
     1     1     2    1
     2     1    32    1
     3     1    33    1
     4     1    34    1
     5     2     3    1
     6     2    35    1
     7     2    36    1
     8     3     4    1
     9     4     5    2
    10     4     6    1
    11     6    31    1
    12     6     7    2
    13     7     8    1
    14     7    37    1
    15     8     9    1
    16     9    10    1
    17     9    31    2
    18    10    11    1
    19    10    15    1
    20    10    12    1
    21    12    13    1
    22    12    38    1
    23    12    39    1
    24    13    14    1
    25    13    40    1
    26    13    41    1
    27    14    15    1
    28    14    42    1
    29    14    43    1
    30    15    16    1
    31    16    17    1
    32    16    44    1
    33    16    45    1
    34    17    18    2
    35    17    19   am
    36    19    20    1
    37    19    46    1
    38    20    21    1
    39    20    22    1
    40    20    23    1
    41    22    47    1
    42    22    48    1
    43    22    49    1
    44    23    30   ar
    45    23    24   ar
    46    24    25   ar
    47    24    50    1
    48    25    26   ar
    49    25    51    1
    50    26    27    1
    51    26    29   ar
    52    27    28    1
    53    27    52    1
    54    27    53    1
    55    28    54    1
    56    28    55    1
    57    28    56    1
    58    29    30   ar
    59    29    57    1
    60    30    58    1
@<TRIPOS>SUBSTRUCTURE
     1 ZINC000484900616        1 TEMP              0 ****  ****    0 ROOT


##########                                Name:    ZINC000004598904
##########                DOCK_Rotatable_Bonds:                  13
##########                         Heavy_Atoms:                  30
##########                    Molecular_Weight:             412.442
##########                DOCK_Rotatable_Bonds:                  13
##########                       Formal_Charge:          -0.0300005
##########                     HBond_Acceptors:                   8
##########                        HBond_Donors:                   2
##########                         Heavy_Atoms:                  30
##########                          Grid_Score:          -37.005974
##########                     Grid_vdw_energy:          -36.566505
##########                      Grid_es_energy:           -0.439470
##########           Internal_energy_repulsive:           12.618492

@<TRIPOS>MOLECULE
ZINC000004598904
 54 55 1 0 0
SMALL
USER_CHARGES


@<TRIPOS>ATOM
      1 C1          2.5560    2.3086   46.9103 C.3     1  ZINC000004598904   -0.1500
      2 C2          1.5887    2.4498   48.0874 C.3     1  ZINC000004598904    0.0600
      3 O3          1.9440    1.4960   49.1228 O.3     1  ZINC000004598904   -0.3500
      4 C4          1.1699    1.4736   50.2256 C.2     1  ZINC000004598904    0.5100
      5 O5          1.6595    1.2107   51.3062 O.2     1  ZINC000004598904   -0.5100
      6 C6         -0.2712    1.7680   50.1211 C.ar    1  ZINC000004598904   -0.1500
      7 C7         -0.8026    2.8990   50.7482 C.ar    1  ZINC000004598904   -0.0400
      8 C8         -2.1483    3.1705   50.6485 C.ar    1  ZINC000004598904   -0.1400
      9 C9         -2.9796    2.3212   49.9248 C.ar    1  ZINC000004598904    0.1800
     10 N10        -4.3420    2.5997   49.8256 N.am    1  ZINC000004598904   -0.6700
     11 C11        -5.0496    2.9046   50.9314 C.2     1  ZINC000004598904    0.5200
     12 O12        -4.5013    2.9368   52.0126 O.2     1  ZINC000004598904   -0.5100
     13 C13        -6.5224    3.2056   50.8242 C.3     1  ZINC000004598904   -0.1300
     14 C14        -7.2421    2.0125   50.1924 C.3     1  ZINC000004598904   -0.1300
     15 C15        -7.6370    1.0358   51.2701 C.2     1  ZINC000004598904    0.5200
     16 O16        -7.0842   -0.0411   51.3446 O.2     1  ZINC000004598904   -0.5100
     17 N17        -8.6044    1.3591   52.1510 N.am    1  ZINC000004598904   -0.6700
     18 C18        -8.9696    0.4555   53.1479 C.ar    1  ZINC000004598904    0.1800
     19 C19        -9.7965   -0.6206   52.8403 C.ar    1  ZINC000004598904   -0.1400
     20 C20       -10.1590   -1.5147   53.8220 C.ar    1  ZINC000004598904   -0.0300
     21 C21        -9.6953   -1.3408   55.1294 C.ar    1  ZINC000004598904   -0.1500
     22 C22       -10.0812   -2.2968   56.1838 C.2     1  ZINC000004598904    0.5100
     23 O23       -10.1907   -3.4782   55.9222 O.2     1  ZINC000004598904   -0.5100
     24 O24       -10.3125   -1.8601   57.4374 O.3     1  ZINC000004598904   -0.3600
     25 C25       -10.7850   -2.8391   58.3999 C.3     1  ZINC000004598904    0.0600
     26 C26       -11.2851   -2.1206   59.6547 C.3     1  ZINC000004598904   -0.1500
     27 C27        -8.8643   -0.2587   55.4348 C.ar    1  ZINC000004598904   -0.0400
     28 C28        -8.5018    0.6287   54.4470 C.ar    1  ZINC000004598904   -0.1600
     29 C29        -2.4542    1.1946   49.2994 C.ar    1  ZINC000004598904   -0.1600
     30 C30        -1.1084    0.9199   49.3900 C.ar    1  ZINC000004598904   -0.0300
     31 H31         2.4947    1.2970   46.5090 H       1  ZINC000004598904    0.0700
     32 H32         2.2892    3.0247   46.1329 H       1  ZINC000004598904    0.0800
     33 H33         3.5730    2.5036   47.2505 H       1  ZINC000004598904    0.0700
     34 H34         1.6500    3.4614   48.4887 H       1  ZINC000004598904    0.0700
     35 H35         0.5716    2.2549   47.7472 H       1  ZINC000004598904    0.0700
     36 H36        -0.1581    3.5584   51.3103 H       1  ZINC000004598904    0.1400
     37 H37        -2.5596    4.0438   51.1329 H       1  ZINC000004598904    0.1400
     38 H38        -4.7806    2.5739   48.9608 H       1  ZINC000004598904    0.4200
     39 H39        -6.9288    3.3902   51.8186 H       1  ZINC000004598904    0.1100
     40 H40        -6.6684    4.0889   50.2023 H       1  ZINC000004598904    0.1100
     41 H41        -8.1348    2.3603   49.6726 H       1  ZINC000004598904    0.1100
     42 H42        -6.5768    1.5209   49.4827 H       1  ZINC000004598904    0.1100
     43 H43        -9.0465    2.2204   52.0914 H       1  ZINC000004598904    0.4200
     44 H44       -10.1543   -0.7543   51.8301 H       1  ZINC000004598904    0.1400
     45 H45       -10.8014   -2.3493   53.5828 H       1  ZINC000004598904    0.1400
     46 H46       -11.6002   -3.4151   57.9618 H       1  ZINC000004598904    0.0700
     47 H47        -9.9685   -3.5100   58.6664 H       1  ZINC000004598904    0.0700
     48 H48       -11.6399   -2.8556   60.3772 H       1  ZINC000004598904    0.0800
     49 H49       -10.4699   -1.5446   60.0927 H       1  ZINC000004598904    0.0700
     50 H50       -12.1017   -1.4497   59.3881 H       1  ZINC000004598904    0.0700
     51 H51        -8.5045   -0.1211   56.4437 H       1  ZINC000004598904    0.1400
     52 H52        -7.8596    1.4647   54.6819 H       1  ZINC000004598904    0.1400
     53 H53        -3.1022    0.5376   48.7385 H       1  ZINC000004598904    0.1400
     54 H54        -0.7012    0.0454   48.9044 H       1  ZINC000004598904    0.1400
@<TRIPOS>BOND
     1     1     2    1
     2     1    31    1
     3     1    32    1
     4     1    33    1
     5     2     3    1
     6     2    34    1
     7     2    35    1
     8     3     4    1
     9     4     5    2
    10     4     6    1
    11     6    30   ar
    12     6     7   ar
    13     7     8   ar
    14     7    36    1
    15     8     9   ar
    16     8    37    1
    17     9    10    1
    18     9    29   ar
    19    10    11   am
    20    10    38    1
    21    11    12    2
    22    11    13    1
    23    13    14    1
    24    13    39    1
    25    13    40    1
    26    14    15    1
    27    14    41    1
    28    14    42    1
    29    15    16    2
    30    15    17   am
    31    17    18    1
    32    17    43    1
    33    18    28   ar
    34    18    19   ar
    35    19    20   ar
    36    19    44    1
    37    20    21   ar
    38    20    45    1
    39    21    22    1
    40    21    27   ar
    41    22    23    2
    42    22    24    1
    43    24    25    1
    44    25    26    1
    45    25    46    1
    46    25    47    1
    47    26    48    1
    48    26    49    1
    49    26    50    1
    50    27    28   ar
    51    27    51    1
    52    28    52    1
    53    29    30   ar
    54    29    53    1
    55    30    54    1
@<TRIPOS>SUBSTRUCTURE
     1 ZINC000004598904        1 TEMP              0 ****  ****    0 ROOT


##########                                Name:    ZINC000600609084
##########                DOCK_Rotatable_Bonds:                   8
##########                         Heavy_Atoms:                  30
##########                    Molecular_Weight:             422.548
##########                DOCK_Rotatable_Bonds:                   8
##########                       Formal_Charge:           0.0100005
##########                     HBond_Acceptors:                   6
##########                        HBond_Donors:                   2
##########                         Heavy_Atoms:                  30
##########                          Grid_Score:          -36.693886
##########                     Grid_vdw_energy:          -36.512997
##########                      Grid_es_energy:           -0.180891
##########           Internal_energy_repulsive:           18.435259

@<TRIPOS>MOLECULE
ZINC000600609084
 56 59 1 0 0
SMALL
USER_CHARGES


@<TRIPOS>ATOM
      1 O1         -9.2405   -0.6354   52.1771 O.2     1  ZINC000600609084   -0.5300
      2 C2         -8.3231   -0.4257   52.9421 C.2     1  ZINC000600609084    0.5200
      3 C3         -6.8998   -0.5221   52.4561 C.3     1  ZINC000600609084   -0.1500
      4 C4         -6.7476    0.2785   51.1613 C.3     1  ZINC000600609084    0.1300
      5 N5         -7.0485    1.6885   51.4206 N.am    1  ZINC000600609084   -1.1200
      6 S6         -6.4534    2.8610   50.4139 S.o2    1  ZINC000600609084    2.7000
      7 O7         -6.8484    2.4985   49.0980 O.2     1  ZINC000600609084   -0.9600
      8 O8         -6.7857    4.1077   51.0095 O.2     1  ZINC000600609084   -0.9500
      9 C9         -4.6959    2.7421   50.4564 C.ar    1  ZINC000600609084   -0.6700
     10 C10        -3.9785    3.5049   51.3755 C.ar    1  ZINC000600609084   -0.0400
     11 C11        -2.6202    3.4366   51.4346 C.ar    1  ZINC000600609084   -0.1200
     12 C12        -1.9282    2.5850   50.5571 C.ar    1  ZINC000600609084   -0.0100
     13 C13        -0.5266    2.4871   50.5885 C.ar    1  ZINC000600609084   -0.1200
     14 C14         0.1097    1.6512   49.7234 C.ar    1  ZINC000600609084   -0.0900
     15 C15        -0.6080    0.8882   48.8038 C.ar    1  ZINC000600609084   -0.1200
     16 C16        -1.9659    0.9569   48.7444 C.ar    1  ZINC000600609084   -0.0900
     17 C17        -2.6581    1.8089   49.6220 C.ar    1  ZINC000600609084   -0.0800
     18 C18        -4.0597    1.9021   49.5946 C.ar    1  ZINC000600609084    0.0200
     19 N19        -8.5765   -0.1010   54.2254 N.am    1  ZINC000600609084   -0.7200
     20 C20        -9.9601   -0.0073   54.6977 C.3     1  ZINC000600609084    0.1400
     21 H21       -10.5710    0.5155   53.9619 H       1  ZINC000600609084    0.1000
     22 C22       -10.5277   -1.4153   54.9492 C.3     1  ZINC000600609084   -0.1300
     23 C23       -10.9006   -1.4795   56.4446 C.3     1  ZINC000600609084   -0.1300
     24 C24       -10.0097   -0.3983   57.1051 C.3     1  ZINC000600609084   -0.1200
     25 C25       -10.0081    0.7360   56.0486 C.3     1  ZINC000600609084   -0.0700
     26 H26       -10.9187    1.3302   56.1255 H       1  ZINC000600609084    0.0900
     27 C27        -8.7928    1.6113   56.2163 C.ar    1  ZINC000600609084   -0.0600
     28 C28        -8.4176    2.4743   55.2038 C.ar    1  ZINC000600609084   -0.1100
     29 C29        -7.3028    3.2771   55.3576 C.ar    1  ZINC000600609084   -0.1200
     30 C30        -6.5636    3.2172   56.5243 C.ar    1  ZINC000600609084   -0.1200
     31 C31        -6.9394    2.3548   57.5371 C.ar    1  ZINC000600609084   -0.1200
     32 C32        -8.0566    1.5551   57.3849 C.ar    1  ZINC000600609084   -0.1100
     33 H33        -6.2289   -0.1180   53.2142 H       1  ZINC000600609084    0.1000
     34 H34        -6.6497   -1.5665   52.2691 H       1  ZINC000600609084    0.1000
     35 H35        -5.7250    0.1865   50.7953 H       1  ZINC000600609084    0.0900
     36 H36        -7.4378   -0.1085   50.4116 H       1  ZINC000600609084    0.0800
     37 H37        -7.5964    1.9355   52.1821 H       1  ZINC000600609084    0.4200
     38 H38        -4.5079    4.1606   52.0509 H       1  ZINC000600609084    0.1400
     39 H39        -2.0773    4.0340   52.1520 H       1  ZINC000600609084    0.1400
     40 H40         0.0428    3.0726   51.2954 H       1  ZINC000600609084    0.1300
     41 H41         1.1868    1.5782   49.7493 H       1  ZINC000600609084    0.1300
     42 H42        -0.0785    0.2329   48.1281 H       1  ZINC000600609084    0.1300
     43 H43        -2.5087    0.3600   48.0264 H       1  ZINC000600609084    0.1300
     44 H44        -4.6292    1.3133   48.8907 H       1  ZINC000600609084    0.1500
     45 H45        -7.8428    0.0707   54.8361 H       1  ZINC000600609084    0.4000
     46 H46       -11.4144   -1.5754   54.3360 H       1  ZINC000600609084    0.0800
     47 H47        -9.7736   -2.1683   54.7197 H       1  ZINC000600609084    0.0700
     48 H48       -11.9553   -1.2429   56.5853 H       1  ZINC000600609084    0.0700
     49 H49       -10.6718   -2.4640   56.8530 H       1  ZINC000600609084    0.0700
     50 H50       -10.4499   -0.0538   58.0409 H       1  ZINC000600609084    0.0700
     51 H51        -9.0003   -0.7762   57.2679 H       1  ZINC000600609084    0.0700
     52 H52        -8.9951    2.5211   54.2925 H       1  ZINC000600609084    0.1200
     53 H53        -7.0093    3.9508   54.5663 H       1  ZINC000600609084    0.1200
     54 H54        -5.6922    3.8439   56.6441 H       1  ZINC000600609084    0.1200
     55 H55        -6.3616    2.3077   58.4483 H       1  ZINC000600609084    0.1200
     56 H56        -8.3501    0.8813   58.1763 H       1  ZINC000600609084    0.1200
@<TRIPOS>BOND
     1     1     2    2
     2     2     3    1
     3     2    19   am
     4     3     4    1
     5     3    33    1
     6     3    34    1
     7     4     5    1
     8     4    35    1
     9     4    36    1
    10     5     6   am
    11     5    37    1
    12     6     7    2
    13     6     8    2
    14     6     9    1
    15     9    18   ar
    16     9    10   ar
    17    10    11   ar
    18    10    38    1
    19    11    12   ar
    20    11    39    1
    21    12    17   ar
    22    12    13   ar
    23    13    14   ar
    24    13    40    1
    25    14    15   ar
    26    14    41    1
    27    15    16   ar
    28    15    42    1
    29    16    17   ar
    30    16    43    1
    31    17    18   ar
    32    18    44    1
    33    19    20    1
    34    19    45    1
    35    20    21    1
    36    20    25    1
    37    20    22    1
    38    22    23    1
    39    22    46    1
    40    22    47    1
    41    23    24    1
    42    23    48    1
    43    23    49    1
    44    24    25    1
    45    24    50    1
    46    24    51    1
    47    25    26    1
    48    25    27    1
    49    27    32   ar
    50    27    28   ar
    51    28    29   ar
    52    28    52    1
    53    29    30   ar
    54    29    53    1
    55    30    31   ar
    56    30    54    1
    57    31    32   ar
    58    31    55    1
    59    32    56    1
@<TRIPOS>SUBSTRUCTURE
     1 ZINC000600609084        1 TEMP              0 ****  ****    0 ROOT


##########                                Name:    ZINC000992031068
##########                DOCK_Rotatable_Bonds:                   8
##########                         Heavy_Atoms:                  25
##########                    Molecular_Weight:             342.401
##########                DOCK_Rotatable_Bonds:                   8
##########                       Formal_Charge:           0.0199999
##########                     HBond_Acceptors:                   8
##########                        HBond_Donors:                   2
##########                         Heavy_Atoms:                  25
##########                          Grid_Score:          -36.600353
##########                     Grid_vdw_energy:          -35.945915
##########                      Grid_es_energy:           -0.654437
##########           Internal_energy_repulsive:            8.741733

@<TRIPOS>MOLECULE
ZINC000992031068
 47 49 1 0 0
SMALL
USER_CHARGES


@<TRIPOS>ATOM
      1 C1          1.6879    1.7605   49.7166 C.3     1  ZINC000992031068   -0.1100
      2 C2          0.2912    1.3067   49.3784 C.ar    1  ZINC000992031068    0.1800
      3 C3         -0.8077    1.9198   49.9631 C.ar    1  ZINC000992031068   -0.1700
      4 C4         -2.0804    1.4639   49.6173 C.ar    1  ZINC000992031068    0.1300
      5 C5         -3.2913    2.0836   50.2117 C.2     1  ZINC000992031068    0.5700
      6 O6         -3.1916    3.0950   50.8771 O.2     1  ZINC000992031068   -0.5200
      7 N7         -4.5012    1.5242   50.0132 N.am    1  ZINC000992031068   -0.7100
      8 C8         -5.6965    2.1367   50.5984 C.3     1  ZINC000992031068    0.1300
      9 C9         -6.8577    1.1420   50.5447 C.3     1  ZINC000992031068   -0.1200
     10 C10        -6.6535   -0.0923   51.4390 C.3     1  ZINC000992031068   -0.1400
     11 C11        -8.1443    0.0195   51.7991 C.3     1  ZINC000992031068    0.1200
     12 N12        -8.4284   -0.2461   53.2115 N.am    1  ZINC000992031068   -0.7200
     13 C13        -9.5973   -0.8143   53.5686 C.2     1  ZINC000992031068    0.5200
     14 O14       -10.4132   -1.1070   52.7205 O.2     1  ZINC000992031068   -0.5200
     15 C15        -9.8902   -1.0858   55.0217 C.3     1  ZINC000992031068   -0.0800
     16 C16       -11.3743   -0.9837   55.2625 C.2     1  ZINC000992031068    0.1000
     17 C17       -12.2381   -0.1857   54.5931 C.2     1  ZINC000992031068   -0.2500
     18 C18       -13.5155   -0.3935   55.1238 C.2     1  ZINC000992031068    0.0500
     19 N19       -13.4219   -1.2843   56.0774 N.2     1  ZINC000992031068   -0.2900
     20 N20       -12.0809   -1.6761   56.1804 N.pl3   1  ZINC000992031068   -0.3700
     21 C21       -11.5397   -2.6573   57.1241 C.3     1  ZINC000992031068    0.1000
     22 C22        -8.0323    1.5161   51.4641 C.3     1  ZINC000992031068   -0.1400
     23 N23        -2.1906    0.4646   48.7453 N.ar    1  ZINC000992031068   -0.5000
     24 C24        -1.1198   -0.0870   48.2157 C.ar    1  ZINC000992031068    0.3000
     25 N25         0.0971    0.3229   48.5170 N.ar    1  ZINC000992031068   -0.5100
     26 H26         1.9898    2.5505   49.0288 H       1  ZINC000992031068    0.0900
     27 H27         1.7093    2.1403   50.7380 H       1  ZINC000992031068    0.0900
     28 H28         2.3750    0.9190   49.6273 H       1  ZINC000992031068    0.0900
     29 H29        -0.6814    2.7285   50.6676 H       1  ZINC000992031068    0.1600
     30 H30        -4.5808    0.7159   49.4829 H       1  ZINC000992031068    0.4100
     31 H31        -5.4961    2.4058   51.6355 H       1  ZINC000992031068    0.0700
     32 H32        -5.9588    3.0322   50.0349 H       1  ZINC000992031068    0.0800
     33 H33        -7.1605    0.8995   49.5261 H       1  ZINC000992031068    0.1000
     34 H34        -6.4049   -0.9970   50.8843 H       1  ZINC000992031068    0.0800
     35 H35        -5.9861    0.0852   52.2823 H       1  ZINC000992031068    0.0900
     36 H36        -8.7989   -0.5325   51.1247 H       1  ZINC000992031068    0.1200
     37 H37        -7.7753   -0.0131   53.8898 H       1  ZINC000992031068    0.4000
     38 H38        -9.5482   -2.0879   55.2803 H       1  ZINC000992031068    0.1200
     39 H39        -9.3705   -0.3538   55.6400 H       1  ZINC000992031068    0.1100
     40 H40       -11.9857    0.4923   53.7913 H       1  ZINC000992031068    0.1500
     41 H41       -14.4223    0.0972   54.8022 H       1  ZINC000992031068    0.1800
     42 H42       -11.5722   -3.6498   56.6748 H       1  ZINC000992031068    0.0800
     43 H43       -10.5077   -2.4004   57.3634 H       1  ZINC000992031068    0.0800
     44 H44       -12.1364   -2.6516   58.0363 H       1  ZINC000992031068    0.0900
     45 H45        -7.7419    2.1334   52.3143 H       1  ZINC000992031068    0.0900
     46 H46        -8.8969    1.9098   50.9296 H       1  ZINC000992031068    0.0800
     47 H47        -1.2410   -0.8963   47.5110 H       1  ZINC000992031068    0.2100
@<TRIPOS>BOND
     1     1     2    1
     2     1    26    1
     3     1    27    1
     4     1    28    1
     5     2    25   ar
     6     2     3   ar
     7     3     4   ar
     8     3    29    1
     9     4     5    1
    10     4    23   ar
    11     5     6    2
    12     5     7   am
    13     7     8    1
    14     7    30    1
    15     8     9    1
    16     8    31    1
    17     8    32    1
    18     9    22    1
    19     9    10    1
    20     9    33    1
    21    10    11    1
    22    10    34    1
    23    10    35    1
    24    11    12    1
    25    11    22    1
    26    11    36    1
    27    12    13   am
    28    12    37    1
    29    13    14    2
    30    13    15    1
    31    15    16    1
    32    15    38    1
    33    15    39    1
    34    16    20    1
    35    16    17    2
    36    17    18    1
    37    17    40    1
    38    18    19    2
    39    18    41    1
    40    19    20    1
    41    20    21    1
    42    21    42    1
    43    21    43    1
    44    21    44    1
    45    22    45    1
    46    22    46    1
    47    23    24   ar
    48    24    25   ar
    49    24    47    1
@<TRIPOS>SUBSTRUCTURE
     1 ZINC000992031068        1 TEMP              0 ****  ****    0 ROOT


##########                                Name:    ZINC000066361645
##########                DOCK_Rotatable_Bonds:                   8
##########                         Heavy_Atoms:                  27
##########                    Molecular_Weight:             392.519
##########                DOCK_Rotatable_Bonds:                   8
##########                       Formal_Charge:           0.0100004
##########                     HBond_Acceptors:                   7
##########                        HBond_Donors:                   2
##########                         Heavy_Atoms:                  27
##########                          Grid_Score:          -36.526749
##########                     Grid_vdw_energy:          -34.521870
##########                      Grid_es_energy:           -2.004881
##########           Internal_energy_repulsive:           17.961645

@<TRIPOS>MOLECULE
ZINC000066361645
 55 57 1 0 0
SMALL
USER_CHARGES


@<TRIPOS>ATOM
      1 C1        -10.7983   -3.0786   56.3822 C.3     1  ZINC000066361645   -0.1400
      2 S2        -11.3203   -1.3423   56.3229 S.3     1  ZINC000066361645   -0.1100
      3 C3        -10.0213   -0.5686   55.4181 C.ar    1  ZINC000066361645   -0.1200
      4 C4         -9.7749   -0.9372   54.1041 C.ar    1  ZINC000066361645   -0.1100
      5 C5         -8.7529   -0.3280   53.3905 C.ar    1  ZINC000066361645    0.0500
      6 C6         -7.9755    0.6541   53.9920 C.ar    1  ZINC000066361645    0.0700
      7 C7         -8.2192    1.0230   55.3070 C.ar    1  ZINC000066361645   -0.1100
      8 C8         -9.2430    0.4194   56.0203 C.ar    1  ZINC000066361645    0.1800
      9 N9         -9.4885    0.7939   57.3500 N.am    1  ZINC000066361645   -0.6600
     10 C10        -8.6386    0.4146   58.3248 C.2     1  ZINC000066361645    0.5100
     11 O11        -7.6614   -0.2507   58.0526 O.2     1  ZINC000066361645   -0.5000
     12 C12        -8.9023    0.8169   59.7530 C.3     1  ZINC000066361645   -0.1500
     13 C13        -8.8467   -0.4212   60.6501 C.3     1  ZINC000066361645    0.1600
     14 H14        -8.1622   -1.1518   60.2192 H       1  ZINC000066361645    0.1000
     15 C15       -10.2442   -1.0346   60.7601 C.3     1  ZINC000066361645   -0.1600
     16 N16        -8.3757   -0.0376   61.9832 N.am    1  ZINC000066361645   -0.7200
     17 C17        -8.9694    0.9778   62.6414 C.2     1  ZINC000066361645    0.5300
     18 O18        -9.8945    1.5729   62.1305 O.2     1  ZINC000066361645   -0.5400
     19 C19        -8.4837    1.3736   64.0119 C.3     1  ZINC000066361645   -0.1100
     20 C20        -9.6736    1.8123   64.8677 C.3     1  ZINC000066361645   -0.1100
     21 C21        -9.1805    2.2141   66.2592 C.3     1  ZINC000066361645   -0.1200
     22 C22        -8.4899    1.0195   66.9202 C.3     1  ZINC000066361645   -0.1200
     23 C23        -7.2999    0.5807   66.0644 C.3     1  ZINC000066361645   -0.1200
     24 C24        -7.7931    0.1789   64.6729 C.3     1  ZINC000066361645   -0.1000
     25 O25        -6.9729    1.2679   53.3032 O.3     1  ZINC000066361645   -0.3000
     26 C26        -6.5148    0.6148   52.1145 C.3     1  ZINC000066361645    0.0200
     27 C27        -7.7420    0.1850   51.2993 C.3     1  ZINC000066361645    0.0200
     28 O28        -8.5236   -0.7060   52.1023 O.3     1  ZINC000066361645   -0.3100
     29 H29       -10.7067   -3.4653   55.3672 H       1  ZINC000066361645    0.0900
     30 H30        -9.8350   -3.1514   56.8870 H       1  ZINC000066361645    0.0900
     31 H31       -11.5395   -3.6624   56.9279 H       1  ZINC000066361645    0.1100
     32 H32       -10.3795   -1.6997   53.6356 H       1  ZINC000066361645    0.1400
     33 H33        -7.6128    1.7846   55.7745 H       1  ZINC000066361645    0.1600
     34 H34       -10.2698    1.3258   57.5677 H       1  ZINC000066361645    0.4100
     35 H35        -8.1459    1.5327   60.0744 H       1  ZINC000066361645    0.1000
     36 H36        -9.8892    1.2740   59.8254 H       1  ZINC000066361645    0.1200
     37 H37       -10.9287   -0.3039   61.1910 H       1  ZINC000066361645    0.0600
     38 H38       -10.5947   -1.3200   59.7682 H       1  ZINC000066361645    0.0700
     39 H39       -10.2046   -1.9166   61.3993 H       1  ZINC000066361645    0.0700
     40 H40        -7.6366   -0.5143   62.3923 H       1  ZINC000066361645    0.4000
     41 H41        -7.7766    2.1983   63.9227 H       1  ZINC000066361645    0.1000
     42 H42       -10.1656    2.6634   64.3969 H       1  ZINC000066361645    0.0600
     43 H43       -10.3808    0.9876   64.9570 H       1  ZINC000066361645    0.0700
     44 H44        -8.4734    3.0388   66.1699 H       1  ZINC000066361645    0.0600
     45 H45       -10.0281    2.5267   66.8690 H       1  ZINC000066361645    0.0700
     46 H46        -8.1385    1.3059   67.9115 H       1  ZINC000066361645    0.0600
     47 H47        -9.1969    0.1948   67.0094 H       1  ZINC000066361645    0.0600
     48 H48        -6.5928    1.4055   65.9752 H       1  ZINC000066361645    0.0600
     49 H49        -6.8079   -0.2703   66.5352 H       1  ZINC000066361645    0.0700
     50 H50        -8.5002   -0.6458   64.7621 H       1  ZINC000066361645    0.0700
     51 H51        -6.9453   -0.1336   64.0632 H       1  ZINC000066361645    0.0700
     52 H52        -5.9066    1.3032   51.5279 H       1  ZINC000066361645    0.1300
     53 H53        -5.9250   -0.2623   52.3810 H       1  ZINC000066361645    0.0800
     54 H54        -8.3354    1.0613   51.0386 H       1  ZINC000066361645    0.0800
     55 H55        -7.4199   -0.3251   50.3913 H       1  ZINC000066361645    0.1200
@<TRIPOS>BOND
     1     1     2    1
     2     1    29    1
     3     1    30    1
     4     1    31    1
     5     2     3    1
     6     3     8   ar
     7     3     4   ar
     8     4     5   ar
     9     4    32    1
    10     5    28    1
    11     5     6   ar
    12     6     7   ar
    13     6    25    1
    14     7     8   ar
    15     7    33    1
    16     8     9    1
    17     9    10   am
    18     9    34    1
    19    10    11    2
    20    10    12    1
    21    12    13    1
    22    12    35    1
    23    12    36    1
    24    13    14    1
    25    13    15    1
    26    13    16    1
    27    15    37    1
    28    15    38    1
    29    15    39    1
    30    16    17   am
    31    16    40    1
    32    17    18    2
    33    17    19    1
    34    19    24    1
    35    19    20    1
    36    19    41    1
    37    20    21    1
    38    20    42    1
    39    20    43    1
    40    21    22    1
    41    21    44    1
    42    21    45    1
    43    22    23    1
    44    22    46    1
    45    22    47    1
    46    23    24    1
    47    23    48    1
    48    23    49    1
    49    24    50    1
    50    24    51    1
    51    25    26    1
    52    26    27    1
    53    26    52    1
    54    26    53    1
    55    27    28    1
    56    27    54    1
    57    27    55    1
@<TRIPOS>SUBSTRUCTURE
     1 ZINC000066361645        1 TEMP              0 ****  ****    0 ROOT


##########                                Name:    ZINC000991934963
##########                DOCK_Rotatable_Bonds:                   8
##########                         Heavy_Atoms:                  27
##########                    Molecular_Weight:             370.495
##########                DOCK_Rotatable_Bonds:                   8
##########                       Formal_Charge:          -0.0499997
##########                     HBond_Acceptors:                   6
##########                        HBond_Donors:                   1
##########                         Heavy_Atoms:                  27
##########                          Grid_Score:          -36.488602
##########                     Grid_vdw_energy:          -37.262691
##########                      Grid_es_energy:            0.774091
##########           Internal_energy_repulsive:           11.070655

@<TRIPOS>MOLECULE
ZINC000991934963
 57 61 1 0 0
SMALL
USER_CHARGES


@<TRIPOS>ATOM
      1 C1         -0.8674    0.7028   48.6505 C.3     1  ZINC000991934963    0.0400
      2 O2         -2.2767    0.8123   48.4408 O.3     1  ZINC000991934963   -0.2900
      3 C3         -2.9722    1.5722   49.3204 C.ar    1  ZINC000991934963    0.5000
      4 N4         -2.3130    2.3512   50.1624 N.ar    1  ZINC000991934963   -0.5700
      5 C5         -2.9610    3.1062   51.0345 C.ar    1  ZINC000991934963    0.1900
      6 C6         -4.3461    3.0737   51.0583 C.ar    1  ZINC000991934963   -0.2700
      7 C7         -5.0042    2.2462   50.1619 C.ar    1  ZINC000991934963    0.2200
      8 C8         -6.5096    2.1777   50.1506 C.3     1  ZINC000991934963    0.1000
      9 N9         -6.9942    1.8344   51.4943 N.3     1  ZINC000991934963   -0.4900
     10 C10        -6.7257    0.3957   51.8101 C.3     1  ZINC000991934963    0.0400
     11 C11        -8.0849   -0.2187   52.2703 C.3     1  ZINC000991934963   -0.1400
     12 C12        -8.8279    1.0261   52.7507 C.3     1  ZINC000991934963    0.1700
     13 N13        -8.3673    1.4770   54.0663 N.am    1  ZINC000991934963   -0.7000
     14 C14        -8.6409    0.7440   55.1637 C.2     1  ZINC000991934963    0.5200
     15 O15        -9.2697   -0.2881   55.0623 O.2     1  ZINC000991934963   -0.5300
     16 C16        -8.1655    1.2069   56.5168 C.3     1  ZINC000991934963   -0.1100
     17 C17        -9.0818    0.6374   57.6016 C.3     1  ZINC000991934963   -0.1300
     18 H18       -10.1414    0.5971   57.3485 H       1  ZINC000991934963    0.1200
     19 C19        -8.7141    0.9235   59.0589 C.3     1  ZINC000991934963   -0.1700
     20 C20        -8.5230   -0.4817   58.4827 C.3     1  ZINC000991934963   -0.1200
     21 H21        -7.5024   -0.8120   58.2898 H       1  ZINC000991934963    0.1000
     22 C22        -9.4937   -1.5716   58.9419 C.3     1  ZINC000991934963   -0.1200
     23 C23        -8.8931   -2.8812   59.4566 C.3     1  ZINC000991934963   -0.1800
     24 C24        -9.5349   -1.8968   60.4363 C.3     1  ZINC000991934963   -0.1800
     25 C25       -10.3426    1.1086   52.5952 C.3     1  ZINC000991934963   -0.1200
     26 C26       -10.5766    2.6385   52.3962 C.3     1  ZINC000991934963   -0.1200
     27 C27        -9.2469    3.2006   51.8081 C.3     1  ZINC000991934963   -0.1000
     28 C28        -8.4062    1.9897   51.5824 C.3     1  ZINC000991934963    0.0500
     29 H29        -8.8109    1.5045   50.6941 H       1  ZINC000991934963    0.0400
     30 N30        -4.2945    1.5214   49.3128 N.ar    1  ZINC000991934963   -0.5000
     31 H31        -0.6789    0.2634   49.6301 H       1  ZINC000991934963    0.0600
     32 H32        -0.4333    0.0680   47.8780 H       1  ZINC000991934963    0.1100
     33 H33        -0.4150    1.6934   48.6035 H       1  ZINC000991934963    0.0600
     34 H34        -2.4172    3.7397   51.7197 H       1  ZINC000991934963    0.1700
     35 H35        -4.9006    3.6793   51.7599 H       1  ZINC000991934963    0.1500
     36 H36        -6.9152    3.1452   49.8543 H       1  ZINC000991934963    0.1000
     37 H37        -6.8334    1.4156   49.4419 H       1  ZINC000991934963    0.0600
     38 H38        -6.3640   -0.1209   50.9210 H       1  ZINC000991934963    0.0600
     39 H39        -5.9908    0.3199   52.6117 H       1  ZINC000991934963    0.0800
     40 H40        -8.6054   -0.6878   51.4354 H       1  ZINC000991934963    0.0800
     41 H41        -7.9385   -0.9267   53.0860 H       1  ZINC000991934963    0.0900
     42 H42        -7.8654    2.3031   54.1476 H       1  ZINC000991934963    0.4000
     43 H43        -7.1461    0.8583   56.6825 H       1  ZINC000991934963    0.1000
     44 H44        -8.1881    2.2958   56.5569 H       1  ZINC000991934963    0.0900
     45 H45        -7.8193    1.5175   59.2448 H       1  ZINC000991934963    0.0900
     46 H46        -9.5316    1.0711   59.7646 H       1  ZINC000991934963    0.1000
     47 H47       -10.4306   -1.6305   58.3879 H       1  ZINC000991934963    0.1000
     48 H48        -9.4349   -3.8023   59.2412 H       1  ZINC000991934963    0.0900
     49 H49        -7.8065   -2.9665   59.4680 H       1  ZINC000991934963    0.0900
     50 H50        -8.8705   -1.3344   61.0924 H       1  ZINC000991934963    0.0900
     51 H51       -10.4989   -2.1702   60.8656 H       1  ZINC000991934963    0.0900
     52 H52       -10.6733    0.5491   51.7202 H       1  ZINC000991934963    0.0800
     53 H53       -10.8445    0.7538   53.4955 H       1  ZINC000991934963    0.0800
     54 H54       -11.3966    2.8057   51.6979 H       1  ZINC000991934963    0.0700
     55 H55       -10.7944    3.1130   53.3531 H       1  ZINC000991934963    0.0700
     56 H56        -9.4342    3.7159   50.8660 H       1  ZINC000991934963    0.0700
     57 H57        -8.7671    3.8705   52.5216 H       1  ZINC000991934963    0.0700
@<TRIPOS>BOND
     1     1     2    1
     2     1    31    1
     3     1    32    1
     4     1    33    1
     5     2     3    1
     6     3    30   ar
     7     3     4   ar
     8     4     5   ar
     9     5     6   ar
    10     5    34    1
    11     6     7   ar
    12     6    35    1
    13     7     8    1
    14     7    30   ar
    15     8     9    1
    16     8    36    1
    17     8    37    1
    18     9    28    1
    19     9    10    1
    20    10    11    1
    21    10    38    1
    22    10    39    1
    23    11    12    1
    24    11    40    1
    25    11    41    1
    26    12    28    1
    27    12    13    1
    28    12    25    1
    29    13    14   am
    30    13    42    1
    31    14    15    2
    32    14    16    1
    33    16    17    1
    34    16    43    1
    35    16    44    1
    36    17    18    1
    37    17    20    1
    38    17    19    1
    39    19    20    1
    40    19    45    1
    41    19    46    1
    42    20    21    1
    43    20    22    1
    44    22    24    1
    45    22    23    1
    46    22    47    1
    47    23    24    1
    48    23    48    1
    49    23    49    1
    50    24    50    1
    51    24    51    1
    52    25    26    1
    53    25    52    1
    54    25    53    1
    55    26    27    1
    56    26    54    1
    57    26    55    1
    58    27    28    1
    59    27    56    1
    60    27    57    1
    61    28    29    1
@<TRIPOS>SUBSTRUCTURE
     1 ZINC000991934963        1 TEMP              0 ****  ****    0 ROOT


##########                                Name:     oleObject14.pdb
##########                DOCK_Rotatable_Bonds:                   9
##########                         Heavy_Atoms:                  33
##########                    Molecular_Weight:             484.424
##########                DOCK_Rotatable_Bonds:                   9
##########                       Formal_Charge:         0.000299782
##########                     HBond_Acceptors:                   7
##########                        HBond_Donors:                   1
##########                         Heavy_Atoms:                  33
##########                          Grid_Score:          -36.459301
##########                     Grid_vdw_energy:          -36.952511
##########                      Grid_es_energy:            0.493209
##########           Internal_energy_repulsive:            8.314882

@<TRIPOS>MOLECULE
oleObject14.pdb
 60 63 1 0 0
SMALL
NO_CHARGES


@<TRIPOS>ATOM
      1 C          -0.5921    3.2275   51.0290 C.ar    1  UNL         0.0422
      2 C          -1.6389    3.8825   51.6966 C.ar    1  UNL        -0.0408
      3 C          -2.9737    3.5576   51.4024 C.ar    1  UNL        -0.0288
      4 C          -3.2683    2.5726   50.4354 C.ar    1  UNL         0.0937
      5 C          -2.2106    1.9197   49.7699 C.ar    1  UNL         0.0723
      6 C          -0.8768    2.2467   50.0662 C.ar    1  UNL        -0.0221
      7 CL         -2.5316    0.6897   48.5617 Cl      1  UNL        -0.0814
      8 O          -4.5667    2.2239   50.1170 O.3     1  UNL        -0.3432
      9 C          -5.7183    2.9803   50.5309 C.3     1  UNL         0.0661
     10 C          -6.9272    2.4837   49.7110 C.3     1  UNL         0.0222
     11 N          -7.8090    1.5615   50.4605 N.4     1  UNL        -0.3010
     12 C          -7.1065    0.4075   51.0690 C.3     1  UNL        -0.0010
     13 C          -8.0900   -0.5772   51.7399 C.3     1  UNL        -0.0289
     14 C          -9.0203    0.1098   52.7686 C.3     1  UNL         0.0382
     15 C          -9.6711    1.3676   52.1398 C.3     1  UNL        -0.0289
     16 C          -8.6564    2.2926   51.4273 C.3     1  UNL        -0.0010
     17 C          -8.2766    0.4296   54.0889 C.2     1  UNL         0.2156
     18 O          -7.0805    0.6554   54.1153 O.2     1  UNL        -0.2774
     19 N          -8.9867    0.5103   55.2799 N.am    1  UNL        -0.3025
     20 C          -8.4581    0.8017   56.6257 C.3     1  UNL         0.0900
     21 C          -8.4174    2.2963   56.9387 C.ar    1  UNL        -0.0217
     22 C          -9.3510    3.1860   56.3698 C.ar    1  UNL        -0.0568
     23 C          -9.2923    4.5590   56.6595 C.ar    1  UNL        -0.0619
     24 C          -8.3022    5.0536   57.5229 C.ar    1  UNL        -0.0622
     25 C          -7.3726    4.1732   58.0983 C.ar    1  UNL        -0.0619
     26 C          -7.4316    2.8003   57.8085 C.ar    1  UNL        -0.0568
     27 C          -9.2219    0.0445   57.7078 C.ar    1  UNL         0.0652
     28 C         -10.5865   -0.2805   57.5623 C.ar    1  UNL        -0.0383
     29 C         -11.2369   -0.9713   58.5973 C.ar    1  UNL        -0.0588
     30 C         -10.5008   -1.3121   59.7427 C.ar    1  UNL        -0.0438
     31 C          -9.1448   -0.9478   59.8065 C.ar    1  UNL         0.0272
     32 N          -8.5187   -0.2843   58.8136 N.ar    1  UNL        -0.2590
     33 CL          1.0701    3.6346   51.3979 Cl      1  UNL        -0.0843
     34 H          -1.4177    4.6413   52.4419 H       1  UNL         0.0639
     35 H          -3.7669    4.0762   51.9310 H       1  UNL         0.0652
     36 H          -0.0660    1.7404   49.5500 H       1  UNL         0.0655
     37 H          -5.5499    4.0485   50.3487 H       1  UNL         0.0586
     38 H          -5.9128    2.8223   51.5995 H       1  UNL         0.0586
     39 H          -6.5374    1.9675   48.8239 H       1  UNL         0.0455
     40 H          -7.5034    3.3503   49.3611 H       1  UNL         0.0455
     41 H          -6.3856    0.7651   51.8158 H       1  UNL         0.0431
     42 H          -6.5463   -0.1475   50.3077 H       1  UNL         0.0431
     43 H          -7.5295   -1.3895   52.2168 H       1  UNL         0.0288
     44 H          -8.7067   -1.0397   50.9584 H       1  UNL         0.0288
     45 H          -9.8412   -0.5809   52.9790 H       1  UNL         0.0402
     46 H         -10.2160    1.9325   52.9069 H       1  UNL         0.0288
     47 H         -10.4165    1.0442   51.4016 H       1  UNL         0.0288
     48 H          -8.0216    2.7822   52.1765 H       1  UNL         0.0431
     49 H          -9.2143    3.0827   50.9083 H       1  UNL         0.0431
     50 H          -9.9933    0.4526   55.1919 H       1  UNL         0.1504
     51 H          -7.4289    0.4211   56.6493 H       1  UNL         0.0624
     52 H         -10.1180    2.8175   55.6949 H       1  UNL         0.0626
     53 H         -10.0130    5.2388   56.2139 H       1  UNL         0.0623
     54 H          -8.2571    6.1155   57.7473 H       1  UNL         0.0623
     55 H          -6.6080    4.5539   58.7695 H       1  UNL         0.0623
     56 H          -6.7087    2.1269   58.2606 H       1  UNL         0.0626
     57 H         -11.1326   -0.0034   56.6657 H       1  UNL         0.0643
     58 H         -12.2871   -1.2357   58.5136 H       1  UNL         0.0624
     59 H         -10.9692   -1.8462   60.5640 H       1  UNL         0.0639
     60 H          -8.5415   -1.1944   60.6793 H       1  UNL         0.0840
@<TRIPOS>BOND
     1     1     2   ar
     2     1     6   ar
     3     1    33    1
     4     2     3   ar
     5     2    34    1
     6     3     4   ar
     7     3    35    1
     8     4     5   ar
     9     4     8    1
    10     5     6   ar
    11     5     7    1
    12     6    36    1
    13     8     9    1
    14     9    10    1
    15     9    37    1
    16     9    38    1
    17    10    11    1
    18    10    39    1
    19    10    40    1
    20    11    12    1
    21    11    16    1
    22    12    13    1
    23    12    41    1
    24    12    42    1
    25    13    14    1
    26    13    43    1
    27    13    44    1
    28    14    15    1
    29    14    17    1
    30    14    45    1
    31    15    16    1
    32    15    46    1
    33    15    47    1
    34    16    48    1
    35    16    49    1
    36    17    18    2
    37    17    19   am
    38    19    20    1
    39    19    50    1
    40    20    21    1
    41    20    27    1
    42    20    51    1
    43    21    22   ar
    44    21    26   ar
    45    22    23   ar
    46    22    52    1
    47    23    24   ar
    48    23    53    1
    49    24    25   ar
    50    24    54    1
    51    25    26   ar
    52    25    55    1
    53    26    56    1
    54    27    28   ar
    55    27    32   ar
    56    28    29   ar
    57    28    57    1
    58    29    30   ar
    59    29    58    1
    60    30    31   ar
    61    30    59    1
    62    31    32   ar
    63    31    60    1
@<TRIPOS>SUBSTRUCTURE
     1 UNL         1 TEMP              0 ****  ****    0 ROOT


##########                                Name:    ZINC001090961577
##########                DOCK_Rotatable_Bonds:                   9
##########                         Heavy_Atoms:                  24
##########                    Molecular_Weight:             352.458
##########                DOCK_Rotatable_Bonds:                   9
##########                       Formal_Charge:                0.02
##########                     HBond_Acceptors:                   8
##########                        HBond_Donors:                   1
##########                         Heavy_Atoms:                  24
##########                          Grid_Score:          -36.446251
##########                     Grid_vdw_energy:          -36.267395
##########                      Grid_es_energy:           -0.178855
##########           Internal_energy_repulsive:           12.384803

@<TRIPOS>MOLECULE
ZINC001090961577
 48 49 1 0 0
SMALL
USER_CHARGES


@<TRIPOS>ATOM
      1 C1         -8.9014   -0.3860   61.7578 C.3     1  ZINC001090961577   -0.1400
      2 C2         -8.7132   -0.2679   60.2439 C.3     1  ZINC001090961577   -0.0900
      3 S3         -8.4417   -1.9166   59.5380 S.3     1  ZINC001090961577   -0.2700
      4 C4         -9.9692   -2.7985   59.9613 C.3     1  ZINC001090961577   -0.0700
      5 C5        -11.0994   -2.3314   59.0419 C.3     1  ZINC001090961577   -0.1200
      6 C6        -10.8321   -2.8055   57.6366 C.2     1  ZINC001090961577    0.5400
      7 O7        -10.7640   -3.9931   57.3999 O.2     1  ZINC001090961577   -0.5300
      8 N8        -10.6686   -1.9099   56.6429 N.am    1  ZINC001090961577   -0.6200
      9 C9        -10.7256   -0.4480   56.7889 C.3     1  ZINC001090961577    0.1100
     10 C10       -10.4546    0.1624   55.3977 C.3     1  ZINC001090961577   -0.1100
     11 H11       -11.3905    0.3970   54.8905 H       1  ZINC001090961577    0.0900
     12 C12        -9.5775    1.4105   55.5157 C.3     1  ZINC001090961577   -0.1400
     13 C13        -9.7006   -0.9754   54.6599 C.3     1  ZINC001090961577    0.1500
     14 H14        -8.6406   -0.9704   54.9138 H       1  ZINC001090961577    0.1200
     15 N15        -9.8910   -0.8779   53.2106 N.pl3   1  ZINC001090961577   -0.6700
     16 C16        -8.9205   -0.2919   52.4255 C.ar    1  ZINC001090961577    0.5900
     17 N17        -7.7659   -0.9218   52.2514 N.ar    1  ZINC001090961577   -0.5700
     18 C18        -6.8118   -0.3949   51.5077 C.ar    1  ZINC001090961577    0.2700
     19 C19        -7.0331    0.8480   50.8988 C.ar    1  ZINC001090961577   -0.3000
     20 C20        -5.9957    1.4743   50.0591 C.2     1  ZINC001090961577    0.5300
     21 O21        -6.2892    2.3828   49.3075 O.2     1  ZINC001090961577   -0.5100
     22 O22        -4.7222    1.0395   50.1252 O.3     1  ZINC001090961577   -0.3600
     23 C23        -3.7536    1.7034   49.2711 C.3     1  ZINC001090961577    0.0400
     24 C24        -8.2666    1.4796   51.1086 C.ar    1  ZINC001090961577    0.2600
     25 N25        -9.1707    0.8831   51.8621 N.ar    1  ZINC001090961577   -0.5700
     26 C26       -10.3965   -2.2336   55.2306 C.3     1  ZINC001090961577    0.0900
     27 H27        -9.0644    0.6047   62.1820 H       1  ZINC001090961577    0.0700
     28 H28        -9.7640   -1.0180   61.9684 H       1  ZINC001090961577    0.0700
     29 H29        -8.0096   -0.8288   62.2013 H       1  ZINC001090961577    0.0700
     30 H30        -9.6049    0.1750   59.8004 H       1  ZINC001090961577    0.0800
     31 H31        -7.8504    0.3641   60.0333 H       1  ZINC001090961577    0.0800
     32 H32        -9.8171   -3.8703   59.8346 H       1  ZINC001090961577    0.0900
     33 H33       -10.2342   -2.5892   60.9978 H       1  ZINC001090961577    0.0900
     34 H34       -12.0459   -2.7444   59.3908 H       1  ZINC001090961577    0.1000
     35 H35       -11.1515   -1.2428   59.0543 H       1  ZINC001090961577    0.1000
     36 H36       -11.7135   -0.1487   57.1390 H       1  ZINC001090961577    0.0800
     37 H37        -9.9638   -0.1160   57.4942 H       1  ZINC001090961577    0.0800
     38 H38        -8.6358    1.1485   55.9979 H       1  ZINC001090961577    0.0600
     39 H39        -9.3778    1.8095   54.5211 H       1  ZINC001090961577    0.0600
     40 H40       -10.0942    2.1625   56.1119 H       1  ZINC001090961577    0.0700
     41 H41       -10.6998   -1.2257   52.8032 H       1  ZINC001090961577    0.4200
     42 H42        -5.8743   -0.9133   51.3707 H       1  ZINC001090961577    0.1800
     43 H43        -2.7703    1.2578   49.4221 H       1  ZINC001090961577    0.1100
     44 H44        -4.0490    1.5874   48.2284 H       1  ZINC001090961577    0.0700
     45 H45        -3.7145    2.7634   49.5219 H       1  ZINC001090961577    0.0700
     46 H46        -8.4755    2.4380   50.6569 H       1  ZINC001090961577    0.1800
     47 H47        -9.7372   -3.0984   55.1563 H       1  ZINC001090961577    0.0900
     48 H48       -11.3316   -2.4220   54.7031 H       1  ZINC001090961577    0.0800
@<TRIPOS>BOND
     1     1     2    1
     2     1    27    1
     3     1    28    1
     4     1    29    1
     5     2     3    1
     6     2    30    1
     7     2    31    1
     8     3     4    1
     9     4     5    1
    10     4    32    1
    11     4    33    1
    12     5     6    1
    13     5    34    1
    14     5    35    1
    15     6     7    2
    16     6     8   am
    17     8    26    1
    18     8     9    1
    19     9    10    1
    20     9    36    1
    21     9    37    1
    22    10    11    1
    23    10    12    1
    24    10    13    1
    25    12    38    1
    26    12    39    1
    27    12    40    1
    28    13    14    1
    29    13    15    1
    30    13    26    1
    31    15    16    1
    32    15    41    1
    33    16    25   ar
    34    16    17   ar
    35    17    18   ar
    36    18    19   ar
    37    18    42    1
    38    19    20    1
    39    19    24   ar
    40    20    21    2
    41    20    22    1
    42    22    23    1
    43    23    43    1
    44    23    44    1
    45    23    45    1
    46    24    25   ar
    47    24    46    1
    48    26    47    1
    49    26    48    1
@<TRIPOS>SUBSTRUCTURE
     1 ZINC001090961577        1 TEMP              0 ****  ****    0 ROOT


##########                                Name:    ZINC000409064708
##########                DOCK_Rotatable_Bonds:                   8
##########                         Heavy_Atoms:                  29
##########                    Molecular_Weight:             415.442
##########                DOCK_Rotatable_Bonds:                   8
##########                       Formal_Charge:                0.03
##########                     HBond_Acceptors:                   8
##########                        HBond_Donors:                   0
##########                         Heavy_Atoms:                  29
##########                          Grid_Score:          -36.435131
##########                     Grid_vdw_energy:          -35.806103
##########                      Grid_es_energy:           -0.629027
##########           Internal_energy_repulsive:           16.214054

@<TRIPOS>MOLECULE
ZINC000409064708
 47 49 1 0 0
SMALL
USER_CHARGES


@<TRIPOS>ATOM
      1 C1         -9.2515   -2.5641   59.3416 C.3     1  ZINC000409064708    0.0400
      2 O2        -10.3603   -1.9307   58.6504 O.3     1  ZINC000409064708   -0.3500
      3 C3        -10.4248   -2.0983   57.3202 C.2     1  ZINC000409064708    0.4600
      4 O4         -9.9908   -3.1072   56.8165 O.2     1  ZINC000409064708   -0.4900
      5 C5        -11.0386   -1.0281   56.4548 C.3     1  ZINC000409064708    0.1400
      6 H6        -11.8796   -1.4462   55.9016 H       1  ZINC000409064708    0.1500
      7 C7        -11.5294    0.1217   57.3367 C.3     1  ZINC000409064708   -0.1600
      8 N8        -10.0351   -0.5268   55.5125 N.am    1  ZINC000409064708   -0.5600
      9 C9         -8.8124   -0.1956   55.9432 C.2     1  ZINC000409064708    0.5400
     10 O10        -8.4045   -0.2625   57.0872 O.2     1  ZINC000409064708   -0.4200
     11 S11        -7.9005    0.3582   54.5281 S.3     1  ZINC000409064708   -0.0100
     12 C12        -9.2410    0.1126   53.3910 C.2     1  ZINC000409064708   -0.2400
     13 C13        -9.2546    0.3439   52.0538 C.2     1  ZINC000409064708    0.0900
     14 C14        -8.0535    0.8614   51.3861 C.ar    1  ZINC000409064708   -0.1400
     15 C15        -8.1020    2.0801   50.6980 C.ar    1  ZINC000409064708    0.0000
     16 C16        -6.9730    2.5606   50.0737 C.ar    1  ZINC000409064708   -0.1600
     17 C17        -5.7865    1.8380   50.1251 C.ar    1  ZINC000409064708    0.1600
     18 O18        -4.6760    2.3166   49.5077 O.3     1  ZINC000409064708   -0.3000
     19 C19        -3.5637    2.6504   50.3405 C.3     1  ZINC000409064708    0.1000
     20 C20        -2.3301    1.9466   49.8370 C.ar    1  ZINC000409064708   -0.0700
     21 C21        -1.0856    2.5211   50.0151 C.ar    1  ZINC000409064708   -0.1000
     22 C22         0.0472    1.8765   49.5536 C.ar    1  ZINC000409064708   -0.0900
     23 C23        -0.0637    0.6568   48.9137 C.ar    1  ZINC000409064708   -0.1400
     24 C24        -1.3099    0.0799   48.7352 C.ar    1  ZINC000409064708    0.1000
     25 F25        -1.4195   -1.1126   48.1096 F       1  ZINC000409064708   -0.1400
     26 C26        -2.4429    0.7238   49.2023 C.ar    1  ZINC000409064708   -0.1300
     27 C27        -5.7326    0.6277   50.8066 C.ar    1  ZINC000409064708   -0.2200
     28 C28        -6.8539    0.1409   51.4398 C.ar    1  ZINC000409064708   -0.0400
     29 C29       -10.3294   -0.4035   54.2290 C.2     1  ZINC000409064708    0.5600
     30 O30       -11.4229   -0.6899   53.7780 O.2     1  ZINC000409064708   -0.4600
     31 H31        -9.2931   -3.6419   59.1839 H       1  ZINC000409064708    0.0700
     32 H32        -8.3107   -2.1759   58.9515 H       1  ZINC000409064708    0.0700
     33 H33        -9.3184   -2.3502   60.4082 H       1  ZINC000409064708    0.1100
     34 H34       -12.2760   -0.2512   58.0378 H       1  ZINC000409064708    0.1000
     35 H35       -10.6884    0.5398   57.8900 H       1  ZINC000409064708    0.0800
     36 H36       -11.9733    0.8959   56.7109 H       1  ZINC000409064708    0.0800
     37 H37       -10.1487    0.1474   51.4808 H       1  ZINC000409064708    0.1600
     38 H38        -9.0235    2.6419   50.6569 H       1  ZINC000409064708    0.1300
     39 H39        -7.0092    3.5003   49.5429 H       1  ZINC000409064708    0.1400
     40 H40        -3.4025    3.7281   50.3165 H       1  ZINC000409064708    0.0800
     41 H41        -3.7690    2.3363   51.3639 H       1  ZINC000409064708    0.0800
     42 H42        -0.9981    3.4745   50.5147 H       1  ZINC000409064708    0.1300
     43 H43         1.0189    2.3265   49.6929 H       1  ZINC000409064708    0.1400
     44 H44         0.8212    0.1537   48.5527 H       1  ZINC000409064708    0.1400
     45 H45        -3.4153    0.2747   49.0639 H       1  ZINC000409064708    0.1400
     46 H46        -4.8083    0.0703   50.8431 H       1  ZINC000409064708    0.1300
     47 H47        -6.8110   -0.7996   51.9691 H       1  ZINC000409064708    0.1300
@<TRIPOS>BOND
     1     1     2    1
     2     1    31    1
     3     1    32    1
     4     1    33    1
     5     2     3    1
     6     3     4    2
     7     3     5    1
     8     5     6    1
     9     5     7    1
    10     5     8    1
    11     7    34    1
    12     7    35    1
    13     7    36    1
    14     8    29   am
    15     8     9   am
    16     9    10    2
    17     9    11    1
    18    11    12    1
    19    12    13    2
    20    12    29    1
    21    13    14    1
    22    13    37    1
    23    14    28   ar
    24    14    15   ar
    25    15    16   ar
    26    15    38    1
    27    16    17   ar
    28    16    39    1
    29    17    18    1
    30    17    27   ar
    31    18    19    1
    32    19    20    1
    33    19    40    1
    34    19    41    1
    35    20    26   ar
    36    20    21   ar
    37    21    22   ar
    38    21    42    1
    39    22    23   ar
    40    22    43    1
    41    23    24   ar
    42    23    44    1
    43    24    25    1
    44    24    26   ar
    45    26    45    1
    46    27    28   ar
    47    27    46    1
    48    28    47    1
    49    29    30    2
@<TRIPOS>SUBSTRUCTURE
     1 ZINC000409064708        1 TEMP              0 ****  ****    0 ROOT


##########                                Name:    ZINC000011620562
##########                DOCK_Rotatable_Bonds:                   9
##########                         Heavy_Atoms:                  29
##########                    Molecular_Weight:             417.448
##########                DOCK_Rotatable_Bonds:                   9
##########                       Formal_Charge:           0.0299999
##########                     HBond_Acceptors:                  12
##########                        HBond_Donors:                   1
##########                         Heavy_Atoms:                  29
##########                          Grid_Score:          -36.297455
##########                     Grid_vdw_energy:          -32.455585
##########                      Grid_es_energy:           -3.841870
##########           Internal_energy_repulsive:           11.373035

@<TRIPOS>MOLECULE
ZINC000011620562
 48 50 1 0 0
SMALL
USER_CHARGES


@<TRIPOS>ATOM
      1 C1         -5.0335    1.9015   67.5507 C.3     1  ZINC000011620562    0.0400
      2 O2         -6.3826    2.2781   67.9332 O.3     1  ZINC000011620562   -0.3500
      3 C3         -7.3791    1.4810   67.5165 C.2     1  ZINC000011620562    0.4600
      4 O4         -8.5229    1.7432   67.8041 O.2     1  ZINC000011620562   -0.5000
      5 C5         -7.0711    0.2592   66.6900 C.3     1  ZINC000011620562    0.1300
      6 N6         -7.0894    0.6138   65.2686 N.am    1  ZINC000011620562   -0.7200
      7 C7         -8.2228    0.4721   64.5532 C.2     1  ZINC000011620562    0.5400
      8 O8         -9.2280    0.0523   65.0864 O.2     1  ZINC000011620562   -0.5200
      9 C9         -8.2411    0.8352   63.0908 C.3     1  ZINC000011620562   -0.1600
     10 S10        -9.9262    1.2776   62.6001 S.3     1  ZINC000011620562    0.1400
     11 C11        -9.6066    1.9994   61.0248 C.2     1  ZINC000011620562    0.2100
     12 N12        -9.1308    3.2054   60.7989 N.2     1  ZINC000011620562   -0.3400
     13 N13        -9.0176    3.4151   59.5371 N.2     1  ZINC000011620562   -0.0300
     14 N14        -9.4046    2.3800   58.8735 N.2     1  ZINC000011620562   -0.0800
     15 N15        -9.7988    1.4151   59.8169 N.pl3   1  ZINC000011620562   -0.2600
     16 C16       -10.2938    0.1218   59.5616 C.2     1  ZINC000011620562   -0.1300
     17 C17        -9.5554   -1.0067   59.4608 C.2     1  ZINC000011620562    0.2500
     18 C18        -8.0578   -1.0963   59.6022 C.3     1  ZINC000011620562   -0.1100
     19 N19       -10.4005   -2.0536   59.2083 N.pl3   1  ZINC000011620562   -0.3700
     20 C20       -10.0044   -3.4528   59.0299 C.3     1  ZINC000011620562    0.0900
     21 N21       -11.7092   -1.5571   59.1507 N.am    1  ZINC000011620562   -0.3600
     22 C22       -12.8652   -2.3070   58.9126 C.ar    1  ZINC000011620562    0.1400
     23 C23       -13.8172   -2.4550   59.9132 C.ar    1  ZINC000011620562   -0.1300
     24 C24       -14.9581   -3.1957   59.6746 C.ar    1  ZINC000011620562   -0.1000
     25 C25       -15.1532   -3.7898   58.4412 C.ar    1  ZINC000011620562   -0.1100
     26 C26       -14.2073   -3.6448   57.4430 C.ar    1  ZINC000011620562   -0.1000
     27 C27       -13.0669   -2.9005   57.6732 C.ar    1  ZINC000011620562   -0.1000
     28 C28       -11.6558   -0.2278   59.3710 C.2     1  ZINC000011620562    0.5500
     29 O29       -12.6040    0.5358   59.3948 O.2     1  ZINC000011620562   -0.5000
     30 H30        -4.9566    1.8802   66.4636 H       1  ZINC000011620562    0.0700
     31 H31        -4.3262    2.6279   67.9509 H       1  ZINC000011620562    0.1100
     32 H32        -4.8049    0.9135   67.9505 H       1  ZINC000011620562    0.0700
     33 H33        -6.0850   -0.1210   66.9569 H       1  ZINC000011620562    0.1200
     34 H34        -7.8207   -0.5083   66.8826 H       1  ZINC000011620562    0.1200
     35 H35        -6.2858    0.9508   64.8425 H       1  ZINC000011620562    0.4200
     36 H36        -7.5781    1.6831   62.9186 H       1  ZINC000011620562    0.1400
     37 H37        -7.9025   -0.0164   62.5007 H       1  ZINC000011620562    0.1400
     38 H38        -7.6515   -0.1044   59.8000 H       1  ZINC000011620562    0.1000
     39 H39        -7.8101   -1.7619   60.4291 H       1  ZINC000011620562    0.1000
     40 H40        -7.6286   -1.4875   58.6798 H       1  ZINC000011620562    0.1000
     41 H41        -8.9193   -3.5341   59.0935 H       1  ZINC000011620562    0.1100
     42 H42       -10.4609   -4.0619   59.8100 H       1  ZINC000011620562    0.0900
     43 H43       -10.3384   -3.8031   58.0532 H       1  ZINC000011620562    0.0900
     44 H44       -13.6651   -1.9915   60.8768 H       1  ZINC000011620562    0.1300
     45 H45       -15.6985   -3.3115   60.4524 H       1  ZINC000011620562    0.1300
     46 H46       -16.0464   -4.3685   58.2573 H       1  ZINC000011620562    0.1300
     47 H47       -14.3625   -4.1106   56.4811 H       1  ZINC000011620562    0.1400
     48 H48       -12.3287   -2.7874   56.8930 H       1  ZINC000011620562    0.1400
@<TRIPOS>BOND
     1     1     2    1
     2     1    30    1
     3     1    31    1
     4     1    32    1
     5     2     3    1
     6     3     4    2
     7     3     5    1
     8     5     6    1
     9     5    33    1
    10     5    34    1
    11     6     7   am
    12     6    35    1
    13     7     8    2
    14     7     9    1
    15     9    10    1
    16     9    36    1
    17     9    37    1
    18    10    11    1
    19    11    15    1
    20    11    12    2
    21    12    13    1
    22    13    14    2
    23    14    15    1
    24    15    16    1
    25    16    28    1
    26    16    17    2
    27    17    18    1
    28    17    19    1
    29    18    38    1
    30    18    39    1
    31    18    40    1
    32    19    20    1
    33    19    21    1
    34    20    41    1
    35    20    42    1
    36    20    43    1
    37    21    22    1
    38    21    28   am
    39    22    27   ar
    40    22    23   ar
    41    23    24   ar
    42    23    44    1
    43    24    25   ar
    44    24    45    1
    45    25    26   ar
    46    25    46    1
    47    26    27   ar
    48    26    47    1
    49    27    48    1
    50    28    29    2
@<TRIPOS>SUBSTRUCTURE
     1 ZINC000011620562        1 TEMP              0 ****  ****    0 ROOT


##########                                Name:    ZINC000533131987
##########                DOCK_Rotatable_Bonds:                  11
##########                         Heavy_Atoms:                  30
##########                    Molecular_Weight:             419.403
##########                DOCK_Rotatable_Bonds:                  11
##########                       Formal_Charge:                0.01
##########                     HBond_Acceptors:                   9
##########                        HBond_Donors:                   3
##########                         Heavy_Atoms:                  30
##########                          Grid_Score:          -36.209259
##########                     Grid_vdw_energy:          -35.958839
##########                      Grid_es_energy:           -0.250419
##########           Internal_energy_repulsive:           26.223083

@<TRIPOS>MOLECULE
ZINC000533131987
 50 52 1 0 0
SMALL
USER_CHARGES


@<TRIPOS>ATOM
      1 O1         -6.0481    0.5068   52.3183 O.2     1  ZINC000533131987   -0.5700
      2 C2         -6.8683    1.1597   51.7024 C.2     1  ZINC000533131987    0.7100
      3 N3         -8.1729    0.8254   51.7550 N.am    1  ZINC000533131987   -0.7400
      4 C4         -8.6020   -0.3282   52.5494 C.3     1  ZINC000533131987    0.1400
      5 C5         -9.7753    0.0766   53.4440 C.3     1  ZINC000533131987   -0.0900
      6 H6         -9.5143    0.9770   54.0003 H       1  ZINC000533131987    0.0900
      7 C7        -11.0061    0.3510   52.5777 C.3     1  ZINC000533131987    0.0800
      8 O8        -11.3029   -0.8050   51.7918 O.3     1  ZINC000533131987   -0.5600
      9 C9        -10.0841   -1.0569   54.4243 C.3     1  ZINC000533131987   -0.0900
     10 C10        -9.5653   -0.6937   55.7918 C.ar    1  ZINC000533131987    0.0000
     11 C11        -8.4183    0.0675   55.9160 C.ar    1  ZINC000533131987   -0.1100
     12 C12        -7.9424    0.4007   57.1706 C.ar    1  ZINC000533131987   -0.0800
     13 C13        -8.6138   -0.0268   58.3004 C.ar    1  ZINC000533131987   -0.1300
     14 C14        -9.7616   -0.7875   58.1762 C.ar    1  ZINC000533131987   -0.0700
     15 C15       -10.2398   -1.1171   56.9220 C.ar    1  ZINC000533131987   -0.1700
     16 C16       -11.4910   -1.9461   56.7865 C.3     1  ZINC000533131987    0.5100
     17 F17       -11.2265   -3.0621   55.9855 F       1  ZINC000533131987   -0.1800
     18 F18       -11.9093   -2.3694   58.0526 F       1  ZINC000533131987   -0.1700
     19 F19       -12.4987   -1.1762   56.1957 F       1  ZINC000533131987   -0.1800
     20 N20        -6.4735    2.2210   50.9716 N.am    1  ZINC000533131987   -0.6900
     21 C21        -5.1187    2.5682   50.9170 C.ar    1  ZINC000533131987    0.1600
     22 C22        -4.6693    3.7158   51.5585 C.ar    1  ZINC000533131987   -0.1000
     23 C23        -3.3320    4.0632   51.5076 C.ar    1  ZINC000533131987   -0.1000
     24 C24        -2.4348    3.2725   50.8194 C.ar    1  ZINC000533131987   -0.1000
     25 C25        -2.8765    2.1174   50.1714 C.ar    1  ZINC000533131987    0.0000
     26 C26        -1.9173    1.2681   49.4336 C.2     1  ZINC000533131987    0.2300
     27 N27        -0.6110    1.3074   49.5515 N.2     1  ZINC000533131987   -0.4700
     28 C28        -0.0783    0.3928   48.7272 C.2     1  ZINC000533131987   -0.0400
     29 C29        -1.0887   -0.2233   48.0869 C.2     1  ZINC000533131987   -0.0700
     30 O30        -2.2373    0.3220   48.5338 O.3     1  ZINC000533131987   -0.2000
     31 C31        -4.2243    1.7640   50.2276 C.ar    1  ZINC000533131987   -0.1000
     32 H32        -8.8277    1.3487   51.2668 H       1  ZINC000533131987    0.4000
     33 H33        -8.9138   -1.1325   51.8831 H       1  ZINC000533131987    0.0700
     34 H34        -7.7736   -0.6708   53.1696 H       1  ZINC000533131987    0.0800
     35 H35       -11.8569    0.5831   53.2184 H       1  ZINC000533131987    0.0400
     36 H36       -10.8059    1.1963   51.9193 H       1  ZINC000533131987    0.0600
     37 H37       -12.1217   -0.7345   51.2820 H       1  ZINC000533131987    0.3800
     38 H38       -11.1620   -1.2109   54.4737 H       1  ZINC000533131987    0.0800
     39 H39        -9.6014   -1.9731   54.0841 H       1  ZINC000533131987    0.0900
     40 H40        -7.8937    0.4016   55.0330 H       1  ZINC000533131987    0.1300
     41 H41        -7.0457    0.9949   57.2676 H       1  ZINC000533131987    0.1300
     42 H42        -8.2416    0.2328   59.2805 H       1  ZINC000533131987    0.1300
     43 H43       -10.2861   -1.1219   59.0591 H       1  ZINC000533131987    0.1300
     44 H44        -7.1283    2.7443   50.4834 H       1  ZINC000533131987    0.4100
     45 H45        -5.3670    4.3388   52.0985 H       1  ZINC000533131987    0.1500
     46 H46        -2.9886    4.9566   52.0079 H       1  ZINC000533131987    0.1400
     47 H47        -1.3911    3.5474   50.7816 H       1  ZINC000533131987    0.1300
     48 H48         0.9744    0.1876   48.6000 H       1  ZINC000533131987    0.1900
     49 H49        -0.9966   -1.0111   47.3540 H       1  ZINC000533131987    0.2200
     50 H50        -4.5718    0.8717   49.7284 H       1  ZINC000533131987    0.1400
@<TRIPOS>BOND
     1     1     2    2
     2     2     3   am
     3     2    20   am
     4     3     4    1
     5     3    32    1
     6     4     5    1
     7     4    33    1
     8     4    34    1
     9     5     6    1
    10     5     7    1
    11     5     9    1
    12     7     8    1
    13     7    35    1
    14     7    36    1
    15     8    37    1
    16     9    10    1
    17     9    38    1
    18     9    39    1
    19    10    15   ar
    20    10    11   ar
    21    11    12   ar
    22    11    40    1
    23    12    13   ar
    24    12    41    1
    25    13    14   ar
    26    13    42    1
    27    14    15   ar
    28    14    43    1
    29    15    16    1
    30    16    17    1
    31    16    18    1
    32    16    19    1
    33    20    21    1
    34    20    44    1
    35    21    31   ar
    36    21    22   ar
    37    22    23   ar
    38    22    45    1
    39    23    24   ar
    40    23    46    1
    41    24    25   ar
    42    24    47    1
    43    25    26    1
    44    25    31   ar
    45    26    30    1
    46    26    27    2
    47    27    28    1
    48    28    29    2
    49    28    48    1
    50    29    30    1
    51    29    49    1
    52    31    50    1
@<TRIPOS>SUBSTRUCTURE
     1 ZINC000533131987        1 TEMP              0 ****  ****    0 ROOT


##########                                Name:    ZINC000464139057
##########                DOCK_Rotatable_Bonds:                   9
##########                         Heavy_Atoms:                  30
##########                    Molecular_Weight:              413.56
##########                DOCK_Rotatable_Bonds:                   9
##########                       Formal_Charge:         2.38419e-07
##########                     HBond_Acceptors:                   6
##########                        HBond_Donors:                   2
##########                         Heavy_Atoms:                  30
##########                          Grid_Score:          -36.122597
##########                     Grid_vdw_energy:          -34.073528
##########                      Grid_es_energy:           -2.049070
##########           Internal_energy_repulsive:           18.075212

@<TRIPOS>MOLECULE
ZINC000464139057
 65 67 1 0 0
SMALL
USER_CHARGES


@<TRIPOS>ATOM
      1 C1        -15.2039   -3.8815   57.5819 C.3     1  ZINC000464139057   -0.1800
      2 C2        -15.9543   -2.5483   57.5980 C.3     1  ZINC000464139057    0.0700
      3 H3        -17.0092   -2.7217   57.3851 H       1  ZINC000464139057    0.1200
      4 C4        -15.8109   -1.8966   58.9781 C.3     1  ZINC000464139057    0.0800
      5 N5        -14.4046   -1.5045   59.1622 N.am    1  ZINC000464139057   -0.6100
      6 C6        -13.7268   -1.8537   60.2735 C.2     1  ZINC000464139057    0.5600
      7 O7        -14.2765   -2.5021   61.1422 O.2     1  ZINC000464139057   -0.5300
      8 C8        -12.3143   -1.4481   60.4360 C.ar    1  ZINC000464139057   -0.1200
      9 C9        -11.9980   -0.2569   61.0911 C.ar    1  ZINC000464139057   -0.0900
     10 C10       -10.6780    0.1156   61.2397 C.ar    1  ZINC000464139057   -0.1000
     11 C11        -9.6688   -0.6886   60.7407 C.ar    1  ZINC000464139057   -0.0900
     12 C12        -8.2291   -0.2751   60.9063 C.3     1  ZINC000464139057    0.1800
     13 N13        -7.9734    0.9312   60.1155 N.am    1  ZINC000464139057   -0.7400
     14 C14        -7.7576    0.8339   58.7886 C.2     1  ZINC000464139057    0.7000
     15 O15        -7.7766   -0.2548   58.2478 O.2     1  ZINC000464139057   -0.5900
     16 N16        -7.5208    1.9436   58.0613 N.am    1  ZINC000464139057   -0.7500
     17 C17        -7.2844    1.8377   56.6194 C.3     1  ZINC000464139057    0.1400
     18 C18        -8.6201    1.9115   55.8768 C.3     1  ZINC000464139057   -0.0900
     19 C19        -8.3812    1.7599   54.3967 C.2     1  ZINC000464139057   -0.1200
     20 C20        -7.2639    2.1627   53.8799 C.2     1  ZINC000464139057   -0.1500
     21 C21        -7.0109    2.0164   52.3947 C.3     1  ZINC000464139057   -0.0900
     22 C22        -6.7861    0.5357   52.0809 C.3     1  ZINC000464139057   -0.1100
     23 C23        -8.1095   -0.1728   51.8523 C.3     1  ZINC000464139057   -0.1200
     24 C24        -8.9783   -0.2555   53.0949 C.3     1  ZINC000464139057   -0.1100
     25 C25        -9.4458    1.1320   53.5227 C.3     1  ZINC000464139057   -0.0800
     26 C26        -9.9754   -1.8708   60.0906 C.ar    1  ZINC000464139057   -0.1000
     27 C27       -11.2911   -2.2575   59.9400 C.ar    1  ZINC000464139057   -0.0700
     28 C28       -13.7601   -0.7200   58.0969 C.3     1  ZINC000464139057    0.0700
     29 C29       -14.0035   -1.4291   56.7598 C.3     1  ZINC000464139057    0.0700
     30 H30       -13.4618   -2.3748   56.7453 H       1  ZINC000464139057    0.0700
     31 C31       -13.5131   -0.5416   55.6140 C.3     1  ZINC000464139057   -0.1500
     32 O32       -15.4038   -1.6785   56.6060 O.3     1  ZINC000464139057   -0.3700
     33 H33       -14.1491   -3.7074   57.7948 H       1  ZINC000464139057    0.0600
     34 H34       -15.6231   -4.5436   58.3396 H       1  ZINC000464139057    0.0700
     35 H35       -15.3049   -4.3435   56.5998 H       1  ZINC000464139057    0.0700
     36 H36       -16.4486   -1.0144   59.0356 H       1  ZINC000464139057    0.0800
     37 H37       -16.0977   -2.6086   59.7519 H       1  ZINC000464139057    0.1000
     38 H38       -12.7850    0.3720   61.4804 H       1  ZINC000464139057    0.1300
     39 H39       -10.4320    1.0371   61.7464 H       1  ZINC000464139057    0.1300
     40 H40        -8.0288   -0.0694   61.9578 H       1  ZINC000464139057    0.0800
     41 H41        -7.5783   -1.0792   60.5631 H       1  ZINC000464139057    0.0800
     42 H42        -7.9594    1.8000   60.5466 H       1  ZINC000464139057    0.4000
     43 H43        -7.5068    2.8124   58.4925 H       1  ZINC000464139057    0.4000
     44 H44        -6.6429    2.6571   56.2951 H       1  ZINC000464139057    0.0700
     45 H45        -6.7987    0.8870   56.3996 H       1  ZINC000464139057    0.0700
     46 H46        -9.2732    1.1104   56.2233 H       1  ZINC000464139057    0.0700
     47 H47        -9.0917    2.8746   56.0720 H       1  ZINC000464139057    0.0800
     48 H48        -6.5086    2.6057   54.5123 H       1  ZINC000464139057    0.1100
     49 H49        -7.8747    2.3812   51.8389 H       1  ZINC000464139057    0.0700
     50 H50        -6.1256    2.5881   52.1163 H       1  ZINC000464139057    0.0700
     51 H51        -6.1725    0.4480   51.1842 H       1  ZINC000464139057    0.0600
     52 H52        -6.2675    0.0664   52.9170 H       1  ZINC000464139057    0.0600
     53 H53        -8.6603    0.3592   51.0766 H       1  ZINC000464139057    0.0600
     54 H54        -7.9071   -1.1845   51.5005 H       1  ZINC000464139057    0.0600
     55 H55        -9.8477   -0.8784   52.8841 H       1  ZINC000464139057    0.0600
     56 H56        -8.4040   -0.7048   53.9051 H       1  ZINC000464139057    0.0600
     57 H57       -10.3763    1.0477   54.0841 H       1  ZINC000464139057    0.0700
     58 H58        -9.6026    1.7533   52.6409 H       1  ZINC000464139057    0.0700
     59 H59        -9.1829   -2.4942   59.7036 H       1  ZINC000464139057    0.1300
     60 H60       -11.5292   -3.1808   59.4326 H       1  ZINC000464139057    0.1300
     61 H61       -14.1914    0.2805   58.0657 H       1  ZINC000464139057    0.0800
     62 H62       -12.6890   -0.6530   58.2873 H       1  ZINC000464139057    0.1000
     63 H63       -12.4469   -0.3494   55.7341 H       1  ZINC000464139057    0.0800
     64 H64       -13.6864   -1.0463   54.6637 H       1  ZINC000464139057    0.0700
     65 H65       -14.0564    0.4032   55.6280 H       1  ZINC000464139057    0.0700
@<TRIPOS>BOND
     1     1     2    1
     2     1    33    1
     3     1    34    1
     4     1    35    1
     5     2     3    1
     6     2    32    1
     7     2     4    1
     8     4     5    1
     9     4    36    1
    10     4    37    1
    11     5     6   am
    12     5    28    1
    13     6     7    2
    14     6     8    1
    15     8    27   ar
    16     8     9   ar
    17     9    10   ar
    18     9    38    1
    19    10    11   ar
    20    10    39    1
    21    11    12    1
    22    11    26   ar
    23    12    13    1
    24    12    40    1
    25    12    41    1
    26    13    14   am
    27    13    42    1
    28    14    15    2
    29    14    16   am
    30    16    17    1
    31    16    43    1
    32    17    18    1
    33    17    44    1
    34    17    45    1
    35    18    19    1
    36    18    46    1
    37    18    47    1
    38    19    25    1
    39    19    20    2
    40    20    21    1
    41    20    48    1
    42    21    22    1
    43    21    49    1
    44    21    50    1
    45    22    23    1
    46    22    51    1
    47    22    52    1
    48    23    24    1
    49    23    53    1
    50    23    54    1
    51    24    25    1
    52    24    55    1
    53    24    56    1
    54    25    57    1
    55    25    58    1
    56    26    27   ar
    57    26    59    1
    58    27    60    1
    59    28    29    1
    60    28    61    1
    61    28    62    1
    62    29    30    1
    63    29    31    1
    64    29    32    1
    65    31    63    1
    66    31    64    1
    67    31    65    1
@<TRIPOS>SUBSTRUCTURE
     1 ZINC000464139057        1 TEMP              0 ****  ****    0 ROOT


##########                                Name:    ZINC000482846390
##########                DOCK_Rotatable_Bonds:                   9
##########                         Heavy_Atoms:                  30
##########                    Molecular_Weight:             420.469
##########                DOCK_Rotatable_Bonds:                   9
##########                       Formal_Charge:          -0.0100011
##########                     HBond_Acceptors:                  11
##########                        HBond_Donors:                   2
##########                         Heavy_Atoms:                  30
##########                          Grid_Score:          -36.082493
##########                     Grid_vdw_energy:          -35.468311
##########                      Grid_es_energy:           -0.614181
##########           Internal_energy_repulsive:           23.927784

@<TRIPOS>MOLECULE
ZINC000482846390
 58 60 1 0 0
SMALL
USER_CHARGES


@<TRIPOS>ATOM
      1 C1         -8.0481    0.7366   66.3003 C.3     1  ZINC000482846390   -0.1000
      2 C2         -8.1966    0.3565   64.8496 C.2     1  ZINC000482846390    0.0900
      3 C3         -9.3251    0.4577   64.1098 C.2     1  ZINC000482846390   -0.2700
      4 C4         -9.0362    0.0021   62.8194 C.2     1  ZINC000482846390    0.0700
      5 C5        -10.0050   -0.0603   61.6668 C.3     1  ZINC000482846390   -0.0500
      6 C6         -9.2669    0.2488   60.3628 C.3     1  ZINC000482846390    0.1500
      7 H7         -8.4868   -0.4953   60.2016 H       1  ZINC000482846390    0.1000
      8 C8         -8.6347    1.6392   60.4519 C.3     1  ZINC000482846390   -0.1700
      9 N9        -10.2137    0.2135   59.2454 N.am    1  ZINC000482846390   -0.6800
     10 C10       -10.5142   -0.9594   58.6535 C.2     1  ZINC000482846390    0.5100
     11 O11       -10.0017   -1.9865   59.0471 O.2     1  ZINC000482846390   -0.5200
     12 C12       -11.4788   -0.9951   57.5126 C.2     1  ZINC000482846390    0.5100
     13 O13       -12.6730   -1.0072   57.7278 O.2     1  ZINC000482846390   -0.5100
     14 N14       -11.0224   -1.0138   56.2446 N.am    1  ZINC000482846390   -0.5900
     15 C15       -11.9594   -1.0427   55.1127 C.3     1  ZINC000482846390    0.0500
     16 C16       -11.6447    0.1378   54.1857 C.3     1  ZINC000482846390    0.1000
     17 N17       -10.2012    0.1465   53.9100 N.am    1  ZINC000482846390   -0.6000
     18 C18        -9.7448    0.1288   52.6420 C.2     1  ZINC000482846390    0.5200
     19 O19       -10.5282    0.1053   51.7155 O.2     1  ZINC000482846390   -0.5000
     20 C20        -8.2741    0.1380   52.3768 C.2     1  ZINC000482846390    0.5200
     21 O21        -7.6323   -0.8866   52.4815 O.2     1  ZINC000482846390   -0.5000
     22 N22        -7.6605    1.2842   52.0216 N.am    1  ZINC000482846390   -0.6000
     23 C23        -6.2147    1.3166   51.7496 C.3     1  ZINC000482846390    0.0700
     24 C24        -5.9925    2.0028   50.3970 C.3     1  ZINC000482846390    0.0500
     25 O25        -6.6679    3.2628   50.3917 O.3     1  ZINC000482846390   -0.3700
     26 C26        -8.0872    3.1667   50.5342 C.3     1  ZINC000482846390    0.0500
     27 C27        -8.4176    2.5389   51.8884 C.3     1  ZINC000482846390    0.0700
     28 C28        -9.2641    0.1755   55.0418 C.3     1  ZINC000482846390    0.0900
     29 C29        -9.5789   -0.9994   55.9687 C.3     1  ZINC000482846390    0.0900
     30 N30        -7.7793   -0.3596   62.7855 N.2     1  ZINC000482846390   -0.2800
     31 N31        -7.2265   -0.1403   64.0539 N.pl3   1  ZINC000482846390   -0.4700
     32 H32        -7.7501    1.7825   66.3731 H       1  ZINC000482846390    0.0800
     33 H33        -8.9994    0.5932   66.8127 H       1  ZINC000482846390    0.0900
     34 H34        -7.2873    0.1089   66.7643 H       1  ZINC000482846390    0.0700
     35 H35       -10.2803    0.8251   64.4550 H       1  ZINC000482846390    0.1500
     36 H36       -10.4390   -1.0587   61.6107 H       1  ZINC000482846390    0.0900
     37 H37       -10.7976    0.6724   61.8182 H       1  ZINC000482846390    0.1100
     38 H38        -7.9302    1.6655   61.2831 H       1  ZINC000482846390    0.0700
     39 H39        -8.1089    1.8594   59.5228 H       1  ZINC000482846390    0.0700
     40 H40        -9.4147    2.3834   60.6129 H       1  ZINC000482846390    0.0600
     41 H41       -10.6244    1.0343   58.9316 H       1  ZINC000482846390    0.4200
     42 H42       -11.8436   -1.9784   54.5658 H       1  ZINC000482846390    0.0800
     43 H43       -12.9815   -0.9558   55.4816 H       1  ZINC000482846390    0.1600
     44 H44       -12.1949    0.0260   53.2513 H       1  ZINC000482846390    0.1100
     45 H45       -11.9300    1.0708   54.6716 H       1  ZINC000482846390    0.0800
     46 H46        -5.7062    1.8775   52.5337 H       1  ZINC000482846390    0.0900
     47 H47        -5.8250    0.2993   51.7136 H       1  ZINC000482846390    0.0900
     48 H48        -4.9256    2.1610   50.2399 H       1  ZINC000482846390    0.1100
     49 H49        -6.3892    1.3738   49.6000 H       1  ZINC000482846390    0.0600
     50 H50        -8.5271    4.1622   50.4758 H       1  ZINC000482846390    0.1100
     51 H51        -8.4915    2.5419   49.7378 H       1  ZINC000482846390    0.0600
     52 H52        -9.4864    2.3325   51.9464 H       1  ZINC000482846390    0.1100
     53 H53        -8.1311    3.2209   52.6889 H       1  ZINC000482846390    0.0800
     54 H54        -8.2421    0.0886   54.6728 H       1  ZINC000482846390    0.0900
     55 H55        -9.3799    1.1112   55.5887 H       1  ZINC000482846390    0.0900
     56 H56        -9.0281   -0.8863   56.9026 H       1  ZINC000482846390    0.1100
     57 H57        -9.2950   -1.9338   55.4846 H       1  ZINC000482846390    0.0800
     58 H58        -6.3098   -0.3197   64.3157 H       1  ZINC000482846390    0.4400
@<TRIPOS>BOND
     1     1     2    1
     2     1    32    1
     3     1    33    1
     4     1    34    1
     5     2    31    1
     6     2     3    2
     7     3     4    1
     8     3    35    1
     9     4     5    1
    10     4    30    2
    11     5     6    1
    12     5    36    1
    13     5    37    1
    14     6     7    1
    15     6     8    1
    16     6     9    1
    17     8    38    1
    18     8    39    1
    19     8    40    1
    20     9    10   am
    21     9    41    1
    22    10    11    2
    23    10    12    1
    24    12    13    2
    25    12    14   am
    26    14    29    1
    27    14    15    1
    28    15    16    1
    29    15    42    1
    30    15    43    1
    31    16    17    1
    32    16    44    1
    33    16    45    1
    34    17    18   am
    35    17    28    1
    36    18    19    2
    37    18    20    1
    38    20    21    2
    39    20    22   am
    40    22    27    1
    41    22    23    1
    42    23    24    1
    43    23    46    1
    44    23    47    1
    45    24    25    1
    46    24    48    1
    47    24    49    1
    48    25    26    1
    49    26    27    1
    50    26    50    1
    51    26    51    1
    52    27    52    1
    53    27    53    1
    54    28    29    1
    55    28    54    1
    56    28    55    1
    57    29    56    1
    58    29    57    1
    59    30    31    1
    60    31    58    1
@<TRIPOS>SUBSTRUCTURE
     1 ZINC000482846390        1 TEMP              0 ****  ****    0 ROOT


##########                                Name:    ZINC000465642058
##########                DOCK_Rotatable_Bonds:                  10
##########                         Heavy_Atoms:                  31
##########                    Molecular_Weight:             420.511
##########                DOCK_Rotatable_Bonds:                  10
##########                       Formal_Charge:          1.2666e-07
##########                     HBond_Acceptors:                   7
##########                        HBond_Donors:                   2
##########                         Heavy_Atoms:                  31
##########                          Grid_Score:          -36.046509
##########                     Grid_vdw_energy:          -34.979046
##########                      Grid_es_energy:           -1.067463
##########           Internal_energy_repulsive:           23.159456

@<TRIPOS>MOLECULE
ZINC000465642058
 59 62 1 0 0
SMALL
USER_CHARGES


@<TRIPOS>ATOM
      1 C1        -13.3667    0.3533   54.6313 C.3     1  ZINC000465642058   -0.1500
      2 C2        -12.1422    0.7937   53.8264 C.3     1  ZINC000465642058    0.0500
      3 O3        -11.0086    0.0187   54.2215 O.3     1  ZINC000465642058   -0.3000
      4 C4         -9.7885    0.4547   53.8086 C.ar    1  ZINC000465642058    0.1200
      5 C5         -9.4108    0.3155   52.4805 C.ar    1  ZINC000465642058   -0.1600
      6 C6         -8.1743    0.7601   52.0673 C.ar    1  ZINC000465642058   -0.1300
      7 C7         -7.2959    1.3551   52.9631 C.ar    1  ZINC000465642058    0.0700
      8 C8         -7.6786    1.4877   54.2956 C.ar    1  ZINC000465642058   -0.0700
      9 C9         -8.9171    1.0461   54.7114 C.ar    1  ZINC000465642058   -0.1100
     10 C10        -9.3207    1.1955   56.1557 C.3     1  ZINC000465642058    0.1900
     11 N11        -9.4747   -0.1304   56.7593 N.am    1  ZINC000465642058   -0.7300
     12 C12        -8.9454   -0.3842   57.9725 C.2     1  ZINC000465642058    0.7100
     13 O13        -8.3388    0.4870   58.5654 O.2     1  ZINC000465642058   -0.5900
     14 N14        -9.0885   -1.6035   58.5286 N.am    1  ZINC000465642058   -0.6200
     15 C15        -8.5115   -1.8798   59.8465 C.3     1  ZINC000465642058    0.1900
     16 C16        -8.9582   -0.8216   60.8222 C.2     1  ZINC000465642058    0.0500
     17 N17       -10.0574   -0.1168   60.7396 N.2     1  ZINC000465642058   -0.2700
     18 N18       -10.1030    0.7532   61.8366 N.pl3   1  ZINC000465642058   -0.4700
     19 C19        -8.9947    0.5453   62.5779 C.2     1  ZINC000465642058    0.0600
     20 C20        -8.2723   -0.4277   61.9758 C.2     1  ZINC000465642058   -0.2600
     21 C21        -9.8209   -2.6527   57.8150 C.3     1  ZINC000465642058    0.1700
     22 C22       -11.2883   -2.5530   58.1432 C.ar    1  ZINC000465642058   -0.1100
     23 C23       -12.2276   -2.5944   57.1298 C.ar    1  ZINC000465642058   -0.0900
     24 C24       -13.5736   -2.5029   57.4309 C.ar    1  ZINC000465642058   -0.1200
     25 C25       -13.9805   -2.3703   58.7453 C.ar    1  ZINC000465642058   -0.1200
     26 C26       -13.0413   -2.3298   59.7588 C.ar    1  ZINC000465642058   -0.1300
     27 C27       -11.6954   -2.4257   59.4581 C.ar    1  ZINC000465642058   -0.1100
     28 O28        -6.1451    1.7393   52.3433 O.3     1  ZINC000465642058   -0.3000
     29 C29        -6.0149    1.0251   51.1023 C.3     1  ZINC000465642058    0.0800
     30 H30        -5.4658    0.0949   51.2479 H       1  ZINC000465642058    0.0900
     31 C31        -5.3323    1.8954   50.0452 C.3     1  ZINC000465642058   -0.1500
     32 C32        -7.4854    0.7389   50.7164 C.3     1  ZINC000465642058   -0.1100
     33 H33       -13.1762    0.5037   55.6939 H       1  ZINC000465642058    0.0700
     34 H34       -14.2314    0.9444   54.3298 H       1  ZINC000465642058    0.0800
     35 H35       -13.5646   -0.7020   54.4435 H       1  ZINC000465642058    0.0700
     36 H36       -12.3326    0.6432   52.7637 H       1  ZINC000465642058    0.0600
     37 H37       -11.9443    1.8490   54.0142 H       1  ZINC000465642058    0.0600
     38 H38       -10.0856   -0.1412   51.7716 H       1  ZINC000465642058    0.1300
     39 H39        -7.0038    1.9425   55.0058 H       1  ZINC000465642058    0.1400
     40 H40        -8.5521    1.7519   56.6920 H       1  ZINC000465642058    0.0700
     41 H41       -10.2667    1.7337   56.2147 H       1  ZINC000465642058    0.0800
     42 H42        -9.9577   -0.8258   56.2858 H       1  ZINC000465642058    0.4000
     43 H43        -8.8470   -2.8575   60.1923 H       1  ZINC000465642058    0.1000
     44 H44        -7.4239   -1.8728   59.7757 H       1  ZINC000465642058    0.0900
     45 H45       -10.8069    1.3922   62.0292 H       1  ZINC000465642058    0.4400
     46 H46        -8.7334    1.0601   63.4907 H       1  ZINC000465642058    0.1800
     47 H47        -7.3294   -0.8252   62.3214 H       1  ZINC000465642058    0.1500
     48 H48        -9.6794   -2.5286   56.7414 H       1  ZINC000465642058    0.0900
     49 H49        -9.4458   -3.6295   58.1204 H       1  ZINC000465642058    0.0900
     50 H50       -11.9098   -2.6979   56.1029 H       1  ZINC000465642058    0.1300
     51 H51       -14.3074   -2.5345   56.6391 H       1  ZINC000465642058    0.1200
     52 H52       -15.0321   -2.2982   58.9805 H       1  ZINC000465642058    0.1200
     53 H53       -13.3590   -2.2260   60.7858 H       1  ZINC000465642058    0.1200
     54 H54       -10.9617   -2.3941   60.2499 H       1  ZINC000465642058    0.1200
     55 H55        -4.3296    2.1575   50.3825 H       1  ZINC000465642058    0.0700
     56 H56        -5.2678    1.3440   49.1072 H       1  ZINC000465642058    0.0800
     57 H57        -5.9137    2.8048   49.8927 H       1  ZINC000465642058    0.0700
     58 H58        -7.5811   -0.2395   50.2456 H       1  ZINC000465642058    0.0900
     59 H59        -7.8771    1.5218   50.0671 H       1  ZINC000465642058    0.1000
@<TRIPOS>BOND
     1     1     2    1
     2     1    33    1
     3     1    34    1
     4     1    35    1
     5     2     3    1
     6     2    36    1
     7     2    37    1
     8     3     4    1
     9     4     9   ar
    10     4     5   ar
    11     5     6   ar
    12     5    38    1
    13     6    32    1
    14     6     7   ar
    15     7     8   ar
    16     7    28    1
    17     8     9   ar
    18     8    39    1
    19     9    10    1
    20    10    11    1
    21    10    40    1
    22    10    41    1
    23    11    12   am
    24    11    42    1
    25    12    13    2
    26    12    14   am
    27    14    15    1
    28    14    21    1
    29    15    16    1
    30    15    43    1
    31    15    44    1
    32    16    20    1
    33    16    17    2
    34    17    18    1
    35    18    19    1
    36    18    45    1
    37    19    20    2
    38    19    46    1
    39    20    47    1
    40    21    22    1
    41    21    48    1
    42    21    49    1
    43    22    27   ar
    44    22    23   ar
    45    23    24   ar
    46    23    50    1
    47    24    25   ar
    48    24    51    1
    49    25    26   ar
    50    25    52    1
    51    26    27   ar
    52    26    53    1
    53    27    54    1
    54    28    29    1
    55    29    30    1
    56    29    31    1
    57    29    32    1
    58    31    55    1
    59    31    56    1
    60    31    57    1
    61    32    58    1
    62    32    59    1
@<TRIPOS>SUBSTRUCTURE
     1 ZINC000465642058        1 TEMP              0 ****  ****    0 ROOT


##########                                Name:    ZINC001109082135
##########                DOCK_Rotatable_Bonds:                   9
##########                         Heavy_Atoms:                  27
##########                    Molecular_Weight:             373.455
##########                DOCK_Rotatable_Bonds:                   9
##########                       Formal_Charge:          -0.0100003
##########                     HBond_Acceptors:                   8
##########                        HBond_Donors:                   3
##########                         Heavy_Atoms:                  27
##########                          Grid_Score:          -36.015076
##########                     Grid_vdw_energy:          -35.882618
##########                      Grid_es_energy:           -0.132458
##########           Internal_energy_repulsive:           17.263401

@<TRIPOS>MOLECULE
ZINC001109082135
 54 57 1 0 0
SMALL
USER_CHARGES


@<TRIPOS>ATOM
      1 C1        -11.7157   -3.1456   56.6958 C.3     1  ZINC001109082135   -0.1400
      2 C2        -10.4393   -2.7870   55.9322 C.3     1  ZINC001109082135   -0.1400
      3 C3        -10.7040   -1.6017   55.0400 C.2     1  ZINC001109082135    0.5100
      4 O4        -11.5514   -0.7897   55.3458 O.2     1  ZINC001109082135   -0.5400
      5 N5         -9.9990   -1.4439   53.9022 N.am    1  ZINC001109082135   -0.7200
      6 C6        -10.2574   -0.2926   53.0339 C.3     1  ZINC001109082135    0.1000
      7 C7         -8.9910    0.0846   52.3095 C.2     1  ZINC001109082135    0.5100
      8 O8         -8.0998   -0.7283   52.1827 O.2     1  ZINC001109082135   -0.5300
      9 N9         -8.8487    1.3252   51.8024 N.am    1  ZINC001109082135   -0.7100
     10 C10        -7.6182    1.6913   51.0965 C.3     1  ZINC001109082135    0.1100
     11 H11        -7.4013    0.9714   50.3074 H       1  ZINC001109082135    0.0900
     12 C12        -7.7290    3.1216   50.5141 C.3     1  ZINC001109082135   -0.1600
     13 C13        -6.5871    3.8985   51.2364 C.3     1  ZINC001109082135    0.0600
     14 H14        -6.2471    4.8064   50.7380 H       1  ZINC001109082135    0.1300
     15 C15        -7.0867    4.0818   52.7012 C.3     1  ZINC001109082135   -0.1200
     16 C16        -6.9885    2.6565   53.2981 C.3     1  ZINC001109082135   -0.1100
     17 C17        -6.4235    1.7908   52.0922 C.3     1  ZINC001109082135    0.0400
     18 H18        -5.9431    0.8529   52.3708 H       1  ZINC001109082135    0.1200
     19 N19        -5.5565    2.8117   51.3979 N.3     1  ZINC001109082135   -0.4800
     20 C20        -5.0919    2.3105   50.0975 C.3     1  ZINC001109082135    0.0800
     21 C21        -3.5871    2.2276   50.0997 C.2     1  ZINC001109082135    0.2000
     22 C22        -2.9562    1.2626   49.3746 C.2     1  ZINC001109082135   -0.2900
     23 C23        -1.5471    1.2135   49.3982 C.2     1  ZINC001109082135    0.5200
     24 O24        -0.9426    0.3658   48.7628 O.2     1  ZINC001109082135   -0.5400
     25 N25        -0.8813    2.1253   50.1387 N.am    1  ZINC001109082135   -0.6300
     26 C26        -1.5652    3.0552   50.8341 C.2     1  ZINC001109082135    0.4300
     27 C27        -0.8070    4.0657   51.6557 C.3     1  ZINC001109082135   -0.1400
     28 C28        -1.0305    4.0563   53.1693 C.3     1  ZINC001109082135   -0.1400
     29 C29         0.2872    3.5406   52.5873 C.3     1  ZINC001109082135   -0.1400
     30 N30        -2.8704    3.1036   50.8081 N.2     1  ZINC001109082135   -0.5300
     31 H31       -12.5056   -3.3937   55.9869 H       1  ZINC001109082135    0.0600
     32 H32       -11.5242   -4.0029   57.3412 H       1  ZINC001109082135    0.0600
     33 H33       -12.0265   -2.2957   57.3034 H       1  ZINC001109082135    0.0600
     34 H34        -9.6493   -2.5389   56.6412 H       1  ZINC001109082135    0.1000
     35 H35       -10.1284   -3.6369   55.3247 H       1  ZINC001109082135    0.1000
     36 H36        -9.3204   -2.0927   53.6583 H       1  ZINC001109082135    0.4100
     37 H37       -11.0283   -0.5510   52.3078 H       1  ZINC001109082135    0.1000
     38 H38       -10.5950    0.5495   53.6380 H       1  ZINC001109082135    0.1000
     39 H39        -9.5610    1.9756   51.9049 H       1  ZINC001109082135    0.4000
     40 H40        -7.5641    3.1112   49.4367 H       1  ZINC001109082135    0.0800
     41 H41        -8.6994    3.5583   50.7506 H       1  ZINC001109082135    0.0800
     42 H42        -6.4393    4.7706   53.2440 H       1  ZINC001109082135    0.0700
     43 H43        -8.1186    4.4329   52.7137 H       1  ZINC001109082135    0.0700
     44 H44        -6.2927    2.6388   54.1368 H       1  ZINC001109082135    0.0700
     45 H45        -7.9718    2.3011   53.6064 H       1  ZINC001109082135    0.0700
     46 H46        -5.5100    1.3197   49.9195 H       1  ZINC001109082135    0.1000
     47 H47        -5.4173    2.9892   49.3092 H       1  ZINC001109082135    0.0700
     48 H48        -3.5232    0.5498   48.7941 H       1  ZINC001109082135    0.1600
     49 H49         0.0881    2.1109   50.1705 H       1  ZINC001109082135    0.4200
     50 H50        -0.6402    5.0308   51.1772 H       1  ZINC001109082135    0.1300
     51 H51        -1.0110    5.0154   53.6869 H       1  ZINC001109082135    0.1100
     52 H52        -1.7260    3.3193   53.5707 H       1  ZINC001109082135    0.1100
     53 H53         0.4587    2.4643   52.6060 H       1  ZINC001109082135    0.1100
     54 H54         1.1736    4.1604   52.7221 H       1  ZINC001109082135    0.1100
@<TRIPOS>BOND
     1     1     2    1
     2     1    31    1
     3     1    32    1
     4     1    33    1
     5     2     3    1
     6     2    34    1
     7     2    35    1
     8     3     4    2
     9     3     5   am
    10     5     6    1
    11     5    36    1
    12     6     7    1
    13     6    37    1
    14     6    38    1
    15     7     8    2
    16     7     9   am
    17     9    10    1
    18     9    39    1
    19    10    11    1
    20    10    17    1
    21    10    12    1
    22    12    13    1
    23    12    40    1
    24    12    41    1
    25    13    14    1
    26    13    19    1
    27    13    15    1
    28    15    16    1
    29    15    42    1
    30    15    43    1
    31    16    17    1
    32    16    44    1
    33    16    45    1
    34    17    18    1
    35    17    19    1
    36    19    20    1
    37    20    21    1
    38    20    46    1
    39    20    47    1
    40    21    30    1
    41    21    22    2
    42    22    23    1
    43    22    48    1
    44    23    24    2
    45    23    25   am
    46    25    26    1
    47    25    49    1
    48    26    27    1
    49    26    30    2
    50    27    29    1
    51    27    28    1
    52    27    50    1
    53    28    29    1
    54    28    51    1
    55    28    52    1
    56    29    53    1
    57    29    54    1
@<TRIPOS>SUBSTRUCTURE
     1 ZINC001109082135        1 TEMP              0 ****  ****    0 ROOT


##########                                Name:    ZINC000466160459
##########                DOCK_Rotatable_Bonds:                   9
##########                         Heavy_Atoms:                  30
##########                    Molecular_Weight:             420.512
##########                DOCK_Rotatable_Bonds:                   9
##########                       Formal_Charge:          -0.0300007
##########                     HBond_Acceptors:                  10
##########                        HBond_Donors:                   2
##########                         Heavy_Atoms:                  30
##########                          Grid_Score:          -35.897427
##########                     Grid_vdw_energy:          -35.286724
##########                      Grid_es_energy:           -0.610704
##########           Internal_energy_repulsive:          181.293503

@<TRIPOS>MOLECULE
ZINC000466160459
 62 64 1 0 0
SMALL
USER_CHARGES


@<TRIPOS>ATOM
      1 C1         -6.7328    3.0992   50.9855 C.3     1  ZINC000466160459    0.0300
      2 O2         -5.7699    2.1652   51.4781 O.3     1  ZINC000466160459   -0.3900
      3 C3         -5.9828    0.8232   51.0360 C.3     1  ZINC000466160459    0.0500
      4 C4         -6.7493    0.0480   52.1096 C.3     1  ZINC000466160459    0.1200
      5 N5         -8.1852    0.2964   51.9596 N.am    1  ZINC000466160459   -0.7300
      6 C6         -9.0489   -0.1620   52.8871 C.2     1  ZINC000466160459    0.5200
      7 O7         -8.6372   -0.7791   53.8466 O.2     1  ZINC000466160459   -0.5200
      8 C8        -10.5263    0.0919   52.7319 C.3     1  ZINC000466160459   -0.1300
      9 H9        -10.8311   -0.1450   51.7125 H       1  ZINC000466160459    0.1100
     10 C10       -10.8252    1.5639   53.0255 C.3     1  ZINC000466160459   -0.1000
     11 C11       -10.3668    1.9060   54.4449 C.3     1  ZINC000466160459   -0.1500
     12 C12       -11.1413    1.0459   55.4486 C.3     1  ZINC000466160459    0.1600
     13 H13       -12.1983    1.3104   55.4173 H       1  ZINC000466160459    0.0700
     14 C14       -10.5944    1.2840   56.8575 C.3     1  ZINC000466160459   -0.1400
     15 N15       -10.9765   -0.3683   55.0856 N.am    1  ZINC000466160459   -0.6200
     16 C16       -10.5350   -1.2628   55.9919 C.2     1  ZINC000466160459    0.7100
     17 O17       -10.4028   -2.4303   55.6791 O.2     1  ZINC000466160459   -0.5500
     18 N18       -10.2401   -0.8633   57.2448 N.am    1  ZINC000466160459   -0.7300
     19 C19        -9.7603   -1.8356   58.2300 C.3     1  ZINC000466160459    0.1600
     20 H20        -8.9903   -2.4601   57.7769 H       1  ZINC000466160459    0.1300
     21 C21       -10.9266   -2.7163   58.6851 C.3     1  ZINC000466160459   -0.1400
     22 C22       -11.8609   -1.8701   59.5582 C.3     1  ZINC000466160459   -0.1400
     23 C23       -11.1333   -1.5189   60.8565 C.3     1  ZINC000466160459    0.1100
     24 N24        -9.8190   -0.9580   60.5691 N.am    1  ZINC000466160459   -0.5200
     25 C25        -9.1870   -0.2159   61.5761 C.2     1  ZINC000466160459    0.2800
     26 N26        -8.7322   -0.6893   62.7123 N.2     1  ZINC000466160459   -0.2600
     27 N27        -8.1740    0.3724   63.4356 N.pl3   1  ZINC000466160459   -0.3800
     28 C28        -7.5532    0.2796   64.7593 C.3     1  ZINC000466160459    0.1000
     29 C29        -8.3077    1.4958   62.6996 C.2     1  ZINC000466160459    0.0700
     30 C30        -8.9243    1.1630   61.5429 C.2     1  ZINC000466160459   -0.2900
     31 C31        -9.1819   -1.1072   59.4090 C.2     1  ZINC000466160459    0.4900
     32 O32        -8.0726   -0.6294   59.2978 O.2     1  ZINC000466160459   -0.4700
     33 C33       -11.3026   -0.7894   53.7155 C.3     1  ZINC000466160459    0.1200
     34 H34        -6.5017    4.0941   51.3661 H       1  ZINC000466160459    0.0900
     35 H35        -6.7030    3.1110   49.8960 H       1  ZINC000466160459    0.0400
     36 H36        -7.7280    2.8047   51.3186 H       1  ZINC000466160459    0.0400
     37 H37        -6.5609    0.8323   50.1120 H       1  ZINC000466160459    0.0600
     38 H38        -5.0208    0.3424   50.8579 H       1  ZINC000466160459    0.0700
     39 H39        -6.5515   -1.0182   51.9987 H       1  ZINC000466160459    0.0800
     40 H40        -6.4248    0.3770   53.0967 H       1  ZINC000466160459    0.0800
     41 H41        -8.5144    0.7909   51.1928 H       1  ZINC000466160459    0.4000
     42 H42       -10.2932    2.1920   52.3108 H       1  ZINC000466160459    0.0700
     43 H43       -11.8970    1.7413   52.9372 H       1  ZINC000466160459    0.0700
     44 H44        -9.2998    1.7052   54.5411 H       1  ZINC000466160459    0.1000
     45 H45       -10.5586    2.9601   54.6450 H       1  ZINC000466160459    0.0700
     46 H46       -10.6173    2.3507   57.0806 H       1  ZINC000466160459    0.0400
     47 H47       -11.2090    0.7483   57.5811 H       1  ZINC000466160459    0.0800
     48 H48        -9.5677    0.9227   56.9146 H       1  ZINC000466160459    0.0600
     49 H49       -10.3455    0.0682   57.4943 H       1  ZINC000466160459    0.3900
     50 H50       -11.4704   -3.0837   57.8148 H       1  ZINC000466160459    0.0900
     51 H51       -10.5467   -3.5585   59.2633 H       1  ZINC000466160459    0.0900
     52 H52       -12.1269   -0.9550   59.0290 H       1  ZINC000466160459    0.0700
     53 H53       -12.7625   -2.4384   59.7865 H       1  ZINC000466160459    0.1000
     54 H54       -11.7219   -0.7902   61.4137 H       1  ZINC000466160459    0.0900
     55 H55       -11.0166   -2.4196   61.4591 H       1  ZINC000466160459    0.0800
     56 H56        -6.4880    0.0767   64.6477 H       1  ZINC000466160459    0.0700
     57 H57        -7.6900    1.2209   65.2917 H       1  ZINC000466160459    0.0900
     58 H58        -8.0196   -0.5280   65.3236 H       1  ZINC000466160459    0.0900
     59 H59        -7.9770    2.4843   62.9823 H       1  ZINC000466160459    0.1800
     60 H60        -9.1768    1.8392   60.7395 H       1  ZINC000466160459    0.1500
     61 H61       -12.3727   -0.6746   53.5430 H       1  ZINC000466160459    0.0900
     62 H62       -11.0176   -1.8322   53.5762 H       1  ZINC000466160459    0.0700
@<TRIPOS>BOND
     1     1     2    1
     2     1    34    1
     3     1    35    1
     4     1    36    1
     5     2     3    1
     6     3     4    1
     7     3    37    1
     8     3    38    1
     9     4     5    1
    10     4    39    1
    11     4    40    1
    12     5     6   am
    13     5    41    1
    14     6     7    2
    15     6     8    1
    16     8     9    1
    17     8    33    1
    18     8    10    1
    19    10    11    1
    20    10    42    1
    21    10    43    1
    22    11    12    1
    23    11    44    1
    24    11    45    1
    25    12    13    1
    26    12    14    1
    27    12    15    1
    28    14    46    1
    29    14    47    1
    30    14    48    1
    31    15    16   am
    32    15    33    1
    33    16    17    2
    34    16    18   am
    35    18    19    1
    36    18    49    1
    37    19    20    1
    38    19    31    1
    39    19    21    1
    40    21    22    1
    41    21    50    1
    42    21    51    1
    43    22    23    1
    44    22    52    1
    45    22    53    1
    46    23    24    1
    47    23    54    1
    48    23    55    1
    49    24    25    1
    50    24    31   am
    51    25    30    1
    52    25    26    2
    53    26    27    1
    54    27    28    1
    55    27    29    1
    56    28    56    1
    57    28    57    1
    58    28    58    1
    59    29    30    2
    60    29    59    1
    61    30    60    1
    62    31    32    2
    63    33    61    1
    64    33    62    1
@<TRIPOS>SUBSTRUCTURE
     1 ZINC000466160459        1 TEMP              0 ****  ****    0 ROOT


##########                                Name:    ZINC001328997126
##########                DOCK_Rotatable_Bonds:                   7
##########                         Heavy_Atoms:                  26
##########                    Molecular_Weight:             388.488
##########                DOCK_Rotatable_Bonds:                   7
##########                       Formal_Charge:           0.0299993
##########                     HBond_Acceptors:                  10
##########                        HBond_Donors:                   1
##########                         Heavy_Atoms:                  26
##########                          Grid_Score:          -35.890564
##########                     Grid_vdw_energy:          -34.413204
##########                      Grid_es_energy:           -1.477361
##########           Internal_energy_repulsive:            8.564029

@<TRIPOS>MOLECULE
ZINC001328997126
 54 56 1 0 0
SMALL
USER_CHARGES


@<TRIPOS>ATOM
      1 C1         -7.5548    0.2267   66.0713 C.3     1  ZINC001328997126   -0.1700
      2 C2         -8.3269    1.2924   65.2907 C.3     1  ZINC001328997126    0.1400
      3 N3         -8.7665    0.7360   64.0088 N.am    1  ZINC001328997126   -0.6300
      4 C4         -7.9791   -0.1634   63.1516 C.3     1  ZINC001328997126    0.0700
      5 C5         -8.9075   -0.4326   61.9516 C.3     1  ZINC001328997126    0.0700
      6 H6         -9.1412   -1.4949   61.8802 H       1  ZINC001328997126    0.1200
      7 C7         -8.2646    0.0621   60.6544 C.3     1  ZINC001328997126    0.0500
      8 N8         -9.1888   -0.1596   59.5343 N.3     1  ZINC001328997126   -0.5300
      9 C9         -9.1434   -1.5573   59.0828 C.3     1  ZINC001328997126    0.0500
     10 C10       -10.1748   -1.7653   57.9713 C.3     1  ZINC001328997126    0.0600
     11 N11        -9.8867   -0.8465   56.8611 N.3     1  ZINC001328997126   -0.5200
     12 C12       -10.8110   -1.0681   55.7410 C.3     1  ZINC001328997126    0.0400
     13 C13       -10.3648   -0.2553   54.5531 C.2     1  ZINC001328997126    0.5200
     14 O14       -11.1873    0.2926   53.8498 O.2     1  ZINC001328997126   -0.5100
     15 N15        -9.0520   -0.1370   54.2722 N.am    1  ZINC001328997126   -0.7300
     16 C16        -8.6184    0.6518   53.1163 C.3     1  ZINC001328997126    0.1600
     17 H17        -9.4108    1.3414   52.8253 H       1  ZINC001328997126    0.1100
     18 C18        -7.3498    1.4442   53.4772 C.3     1  ZINC001328997126   -0.1400
     19 C19        -6.7667    1.9793   52.1439 C.3     1  ZINC001328997126   -0.5800
     20 S20        -6.9449    0.5392   51.0242 S.o2    1  ZINC001328997126    2.4000
     21 O21        -7.4307    0.9800   49.7637 O.2     1  ZINC001328997126   -0.9300
     22 O22        -5.7699   -0.2572   51.0908 O.2     1  ZINC001328997126   -0.9300
     23 C23        -8.2923   -0.2892   51.9395 C.3     1  ZINC001328997126   -0.6100
     24 C24        -9.9322    0.5512   57.3127 C.3     1  ZINC001328997126    0.0500
     25 C25        -8.9008    0.7592   58.4241 C.3     1  ZINC001328997126    0.0600
     26 O26       -10.1080    0.3351   62.2553 O.3     1  ZINC001328997126   -0.3100
     27 C27        -9.9536    0.9589   63.4286 C.2     1  ZINC001328997126    0.6400
     28 O28       -10.8085    1.6692   63.9194 O.2     1  ZINC001328997126   -0.5200
     29 H29        -8.2016   -0.6322   66.2507 H       1  ZINC001328997126    0.0600
     30 H30        -6.6852   -0.0875   65.4943 H       1  ZINC001328997126    0.0600
     31 H31        -7.2278    0.6406   67.0251 H       1  ZINC001328997126    0.0700
     32 H32        -9.1965    1.6066   65.8679 H       1  ZINC001328997126    0.0900
     33 H33        -7.6801    2.1512   65.1115 H       1  ZINC001328997126    0.0900
     34 H34        -7.0619    0.3258   62.8238 H       1  ZINC001328997126    0.0900
     35 H35        -7.7527   -1.0915   63.6764 H       1  ZINC001328997126    0.0900
     36 H36        -8.0462    1.1265   60.7402 H       1  ZINC001328997126    0.0900
     37 H37        -7.3392   -0.4854   60.4757 H       1  ZINC001328997126    0.0600
     38 H38        -8.1477   -1.7842   58.7020 H       1  ZINC001328997126    0.0500
     39 H39        -9.3723   -2.2174   59.9194 H       1  ZINC001328997126    0.0900
     40 H40       -10.1228   -2.7940   57.6149 H       1  ZINC001328997126    0.0800
     41 H41       -11.1733   -1.5646   58.3596 H       1  ZINC001328997126    0.0500
     42 H42       -10.8147   -2.1257   55.4768 H       1  ZINC001328997126    0.1100
     43 H43       -11.8159   -0.7631   56.0333 H       1  ZINC001328997126    0.0700
     44 H44        -8.3943   -0.5742   54.8353 H       1  ZINC001328997126    0.4100
     45 H45        -7.6034    2.2761   54.1342 H       1  ZINC001328997126    0.1100
     46 H46        -6.6270    0.7898   53.9647 H       1  ZINC001328997126    0.0900
     47 H47        -7.3479    2.8266   51.7799 H       1  ZINC001328997126    0.1400
     48 H48        -5.7176    2.2504   52.2616 H       1  ZINC001328997126    0.1400
     49 H49        -7.9583   -1.2586   52.3095 H       1  ZINC001328997126    0.1400
     50 H50        -9.1669   -0.4080   51.3000 H       1  ZINC001328997126    0.1500
     51 H51        -9.7033    1.2113   56.4760 H       1  ZINC001328997126    0.1000
     52 H52       -10.9280    0.7781   57.6934 H       1  ZINC001328997126    0.0400
     53 H53        -8.9528    1.7879   58.7806 H       1  ZINC001328997126    0.0800
     54 H54        -7.9022    0.5585   58.0358 H       1  ZINC001328997126    0.0500
@<TRIPOS>BOND
     1     1     2    1
     2     1    29    1
     3     1    30    1
     4     1    31    1
     5     2     3    1
     6     2    32    1
     7     2    33    1
     8     3    27   am
     9     3     4    1
    10     4     5    1
    11     4    34    1
    12     4    35    1
    13     5     6    1
    14     5     7    1
    15     5    26    1
    16     7     8    1
    17     7    36    1
    18     7    37    1
    19     8    25    1
    20     8     9    1
    21     9    10    1
    22     9    38    1
    23     9    39    1
    24    10    11    1
    25    10    40    1
    26    10    41    1
    27    11    12    1
    28    11    24    1
    29    12    13    1
    30    12    42    1
    31    12    43    1
    32    13    14    2
    33    13    15   am
    34    15    16    1
    35    15    44    1
    36    16    17    1
    37    16    23    1
    38    16    18    1
    39    18    19    1
    40    18    45    1
    41    18    46    1
    42    19    20    1
    43    19    47    1
    44    19    48    1
    45    20    21    2
    46    20    22    2
    47    20    23    1
    48    23    49    1
    49    23    50    1
    50    24    25    1
    51    24    51    1
    52    24    52    1
    53    25    53    1
    54    25    54    1
    55    26    27    1
    56    27    28    2
@<TRIPOS>SUBSTRUCTURE
     1 ZINC001328997126        1 TEMP              0 ****  ****    0 ROOT


##########                                Name:    ZINC001289410668
##########                DOCK_Rotatable_Bonds:                  11
##########                         Heavy_Atoms:                  26
##########                    Molecular_Weight:             362.515
##########                DOCK_Rotatable_Bonds:                  11
##########                       Formal_Charge:          -0.0400008
##########                     HBond_Acceptors:                   6
##########                        HBond_Donors:                   1
##########                         Heavy_Atoms:                  26
##########                          Grid_Score:          -35.861546
##########                     Grid_vdw_energy:          -35.597702
##########                      Grid_es_energy:           -0.263843
##########           Internal_energy_repulsive:           21.694595

@<TRIPOS>MOLECULE
ZINC001289410668
 60 61 1 0 0
SMALL
USER_CHARGES


@<TRIPOS>ATOM
      1 C1         -3.9183    3.8728   53.6243 C.3     1  ZINC001289410668   -0.1500
      2 C2         -3.7633    4.5373   52.2549 C.3     1  ZINC001289410668   -0.1300
      3 C3         -3.9347    3.4866   51.1560 C.3     1  ZINC001289410668   -0.1200
      4 C4         -5.3257    2.8584   51.2636 C.3     1  ZINC001289410668   -0.1200
      5 C5         -5.4565    1.7300   50.2388 C.3     1  ZINC001289410668   -0.1100
      6 C6         -6.8894    1.1940   50.2504 C.3     1  ZINC001289410668   -0.1400
      7 C7         -7.1907    0.5947   51.5998 C.2     1  ZINC001289410668    0.5100
      8 O8         -6.7193   -0.4804   51.9048 O.2     1  ZINC001289410668   -0.5300
      9 N9         -7.9840    1.2533   52.4678 N.am    1  ZINC001289410668   -0.7200
     10 C10        -8.2784    0.6699   53.7790 C.3     1  ZINC001289410668    0.1400
     11 H11        -7.3760    0.2614   54.2340 H       1  ZINC001289410668    0.1100
     12 C12        -9.3834   -0.4103   53.6706 C.3     1  ZINC001289410668    0.0800
     13 N13        -9.9960   -0.4592   55.0107 N.am    1  ZINC001289410668   -0.6200
     14 C14       -10.6549   -1.5114   55.5353 C.2     1  ZINC001289410668    0.5100
     15 O15       -10.7842   -2.5294   54.8890 O.2     1  ZINC001289410668   -0.5100
     16 C16       -11.2310   -1.4228   56.9251 C.3     1  ZINC001289410668    0.0900
     17 N17       -10.5213   -2.3518   57.8080 N.pl3   1  ZINC001289410668   -0.4500
     18 C18       -10.4535   -3.7120   57.6700 C.2     1  ZINC001289410668   -0.0500
     19 C19        -9.7047   -4.1703   58.6913 C.2     1  ZINC001289410668   -0.0200
     20 N20        -9.3256   -3.1187   59.4324 N.2     1  ZINC001289410668   -0.4800
     21 C21        -9.8068   -2.0256   58.9065 C.2     1  ZINC001289410668    0.2300
     22 C22        -9.6063   -0.6312   59.4417 C.3     1  ZINC001289410668   -0.0100
     23 C23       -10.8272   -0.2215   60.2678 C.3     1  ZINC001289410668   -0.1400
     24 C24        -8.3581   -0.5989   60.3259 C.3     1  ZINC001289410668   -0.1400
     25 C25        -9.7686    0.8299   55.6803 C.3     1  ZINC001289410668    0.1100
     26 C26        -8.9497    1.7111   54.7130 C.3     1  ZINC001289410668   -0.1100
     27 H27        -9.6047    2.3719   54.1451 H       1  ZINC001289410668    0.0900
     28 C28        -7.8982    2.5194   55.4757 C.3     1  ZINC001289410668   -0.1400
     29 H29        -3.7961    4.6213   54.4073 H       1  ZINC001289410668    0.0500
     30 H30        -4.9091    3.4253   53.7009 H       1  ZINC001289410668    0.0500
     31 H31        -3.1599    3.0985   53.7404 H       1  ZINC001289410668    0.0500
     32 H32        -4.5216    5.3116   52.1388 H       1  ZINC001289410668    0.0600
     33 H33        -2.7723    4.9848   52.1783 H       1  ZINC001289410668    0.0600
     34 H34        -3.8244    3.9599   50.1803 H       1  ZINC001289410668    0.0600
     35 H35        -3.1765    2.7122   51.2721 H       1  ZINC001289410668    0.0600
     36 H36        -5.4660    2.4561   52.2669 H       1  ZINC001289410668    0.0600
     37 H37        -6.0832    3.6172   51.0673 H       1  ZINC001289410668    0.0600
     38 H38        -5.2194    2.1119   49.2458 H       1  ZINC001289410668    0.0700
     39 H39        -4.7658    0.9262   50.4933 H       1  ZINC001289410668    0.0700
     40 H40        -7.5842    2.0101   50.0519 H       1  ZINC001289410668    0.1000
     41 H41        -6.9976    0.4295   49.4809 H       1  ZINC001289410668    0.1000
     42 H42        -8.3600    2.1136   52.2244 H       1  ZINC001289410668    0.4000
     43 H43       -10.1243   -0.1215   52.9251 H       1  ZINC001289410668    0.0800
     44 H44        -8.9462   -1.3763   53.4180 H       1  ZINC001289410668    0.0800
     45 H45       -11.1178   -0.4060   57.3011 H       1  ZINC001289410668    0.1200
     46 H46       -12.2887   -1.6844   56.8972 H       1  ZINC001289410668    0.1200
     47 H47       -10.9127   -4.3038   56.8920 H       1  ZINC001289410668    0.1700
     48 H48        -9.4536   -5.2036   58.8803 H       1  ZINC001289410668    0.1700
     49 H49        -9.4807    0.0625   58.6104 H       1  ZINC001289410668    0.0700
     50 H50       -10.9528   -0.9153   61.0991 H       1  ZINC001289410668    0.0700
     51 H51       -10.6822    0.7870   60.6549 H       1  ZINC001289410668    0.0600
     52 H52       -11.7164   -0.2446   59.6379 H       1  ZINC001289410668    0.0500
     53 H53        -8.4837   -1.2927   61.1573 H       1  ZINC001289410668    0.0700
     54 H54        -7.4882   -0.8908   59.7374 H       1  ZINC001289410668    0.0600
     55 H55        -8.2130    0.4096   60.7131 H       1  ZINC001289410668    0.0600
     56 H56       -10.7235    1.3075   55.8993 H       1  ZINC001289410668    0.0800
     57 H57        -9.2093    0.6746   56.6029 H       1  ZINC001289410668    0.0800
     58 H58        -7.2360    1.8397   56.0120 H       1  ZINC001289410668    0.0600
     59 H59        -7.3157    3.1138   54.7716 H       1  ZINC001289410668    0.0600
     60 H60        -8.3934    3.1807   56.1867 H       1  ZINC001289410668    0.0700
@<TRIPOS>BOND
     1     1     2    1
     2     1    29    1
     3     1    30    1
     4     1    31    1
     5     2     3    1
     6     2    32    1
     7     2    33    1
     8     3     4    1
     9     3    34    1
    10     3    35    1
    11     4     5    1
    12     4    36    1
    13     4    37    1
    14     5     6    1
    15     5    38    1
    16     5    39    1
    17     6     7    1
    18     6    40    1
    19     6    41    1
    20     7     8    2
    21     7     9   am
    22     9    10    1
    23     9    42    1
    24    10    11    1
    25    10    26    1
    26    10    12    1
    27    12    13    1
    28    12    43    1
    29    12    44    1
    30    13    14   am
    31    13    25    1
    32    14    15    2
    33    14    16    1
    34    16    17    1
    35    16    45    1
    36    16    46    1
    37    17    21    1
    38    17    18    1
    39    18    19    2
    40    18    47    1
    41    19    20    1
    42    19    48    1
    43    20    21    2
    44    21    22    1
    45    22    23    1
    46    22    24    1
    47    22    49    1
    48    23    50    1
    49    23    51    1
    50    23    52    1
    51    24    53    1
    52    24    54    1
    53    24    55    1
    54    25    26    1
    55    25    56    1
    56    25    57    1
    57    26    27    1
    58    26    28    1
    59    28    58    1
    60    28    59    1
    61    28    60    1
@<TRIPOS>SUBSTRUCTURE
     1 ZINC001289410668        1 TEMP              0 ****  ****    0 ROOT


##########                                Name:    ZINC000410354665
##########                DOCK_Rotatable_Bonds:                   7
##########                         Heavy_Atoms:                  29
##########                    Molecular_Weight:             417.889
##########                DOCK_Rotatable_Bonds:                   7
##########                       Formal_Charge:        -3.72529e-08
##########                     HBond_Acceptors:                   7
##########                        HBond_Donors:                   1
##########                         Heavy_Atoms:                  29
##########                          Grid_Score:          -35.836380
##########                     Grid_vdw_energy:          -35.329235
##########                      Grid_es_energy:           -0.507147
##########           Internal_energy_repulsive:           21.381451

@<TRIPOS>MOLECULE
ZINC000410354665
 53 56 1 0 0
SMALL
USER_CHARGES


@<TRIPOS>ATOM
      1 C1         -7.0117    2.6777   56.5743 C.3     1  ZINC000410354665    0.0200
      2 O2         -7.6365    1.3927   56.5673 O.3     1  ZINC000410354665   -0.3000
      3 C3         -7.9999    0.8894   55.3572 C.ar    1  ZINC000410354665    0.0900
      4 C4         -7.5151    1.4617   54.1976 C.ar    1  ZINC000410354665   -0.1100
      5 C5         -7.8903    0.9417   52.9556 C.ar    1  ZINC000410354665   -0.1400
      6 C6         -7.3746    1.5492   51.7131 C.2     1  ZINC000410354665    0.5700
      7 O7         -7.8026    1.1847   50.6350 O.2     1  ZINC000410354665   -0.5300
      8 N8         -6.4293    2.5079   51.7737 N.am    1  ZINC000410354665   -0.7200
      9 C9         -5.9188    3.1121   50.5406 C.3     1  ZINC000410354665    0.1700
     10 C10        -4.4530    2.7939   50.3947 C.ar    1  ZINC000410354665   -0.1000
     11 C11        -4.0440    1.8184   49.5051 C.ar    1  ZINC000410354665   -0.0900
     12 C12        -2.6996    1.5220   49.3702 C.ar    1  ZINC000410354665   -0.0300
     13 Cl13       -2.1896    0.2958   48.2522 Cl      1  ZINC000410354665   -0.0400
     14 C14        -1.7583    2.2046   50.1276 C.ar    1  ZINC000410354665    0.0700
     15 O15        -0.4394    1.8971   49.9899 O.3     1  ZINC000410354665   -0.2900
     16 C16         0.5003    2.8548   50.4897 C.3     1  ZINC000410354665    0.0200
     17 C17         0.0412    3.2952   51.8862 C.3     1  ZINC000410354665    0.0200
     18 O18        -1.2633    3.8732   51.7678 O.3     1  ZINC000410354665   -0.3000
     19 C19        -2.1701    3.1879   51.0189 C.ar    1  ZINC000410354665    0.0600
     20 C20        -3.5195    3.4822   51.1467 C.ar    1  ZINC000410354665   -0.0900
     21 C21        -8.7538   -0.1543   52.8928 C.ar    1  ZINC000410354665   -0.0800
     22 C22        -9.2344   -0.7204   54.0539 C.ar    1  ZINC000410354665   -0.1900
     23 C23        -8.8574   -0.2079   55.2874 C.ar    1  ZINC000410354665    0.1400
     24 O24        -9.3337   -0.7692   56.4285 O.3     1  ZINC000410354665   -0.2900
     25 C25       -10.3419   -1.7719   56.2865 C.3     1  ZINC000410354665    0.0700
     26 C26       -10.6337   -2.4442   57.6510 C.3     1  ZINC000410354665   -0.1500
     27 C27       -12.0681   -2.9967   57.4600 C.3     1  ZINC000410354665   -0.1200
     28 C28       -12.7844   -1.9108   56.6307 C.3     1  ZINC000410354665   -0.1200
     29 C29       -11.6868   -1.1322   55.8846 C.3     1  ZINC000410354665   -0.1200
     30 H30        -6.0950    2.6394   55.9859 H       1  ZINC000410354665    0.0600
     31 H31        -7.6899    3.4139   56.1428 H       1  ZINC000410354665    0.0600
     32 H32        -6.7735    2.9603   57.5998 H       1  ZINC000410354665    0.1000
     33 H33        -6.8479    2.3093   54.2502 H       1  ZINC000410354665    0.1500
     34 H34        -6.0870    2.7979   52.6336 H       1  ZINC000410354665    0.4000
     35 H35        -6.4644    2.7109   49.6864 H       1  ZINC000410354665    0.0800
     36 H36        -6.0535    4.1929   50.5826 H       1  ZINC000410354665    0.0900
     37 H37        -4.7753    1.2864   48.9147 H       1  ZINC000410354665    0.1500
     38 H38         1.4891    2.4006   50.5539 H       1  ZINC000410354665    0.1300
     39 H39         0.5342    3.7178   49.8248 H       1  ZINC000410354665    0.0800
     40 H40         0.0016    2.4311   52.5496 H       1  ZINC000410354665    0.0800
     41 H41         0.7358    4.0342   52.2854 H       1  ZINC000410354665    0.1300
     42 H42        -3.8416    4.2475   51.8374 H       1  ZINC000410354665    0.1400
     43 H43        -9.0450   -0.5579   51.9343 H       1  ZINC000410354665    0.1300
     44 H44        -9.9023   -1.5677   54.0038 H       1  ZINC000410354665    0.1400
     45 H45       -10.0379   -2.5156   55.5499 H       1  ZINC000410354665    0.0800
     46 H46        -9.9298   -3.2545   57.8409 H       1  ZINC000410354665    0.0700
     47 H47       -10.6064   -1.7106   58.4568 H       1  ZINC000410354665    0.0800
     48 H48       -12.0441   -3.9398   56.9141 H       1  ZINC000410354665    0.0700
     49 H49       -12.5588   -3.1255   58.4247 H       1  ZINC000410354665    0.0700
     50 H50       -13.4645   -2.3747   55.9162 H       1  ZINC000410354665    0.0700
     51 H51       -13.3354   -1.2402   57.2901 H       1  ZINC000410354665    0.0700
     52 H52       -11.7052   -0.0836   56.1819 H       1  ZINC000410354665    0.0800
     53 H53       -11.8343   -1.2180   54.8080 H       1  ZINC000410354665    0.0700
@<TRIPOS>BOND
     1     1     2    1
     2     1    30    1
     3     1    31    1
     4     1    32    1
     5     2     3    1
     6     3    23   ar
     7     3     4   ar
     8     4     5   ar
     9     4    33    1
    10     5     6    1
    11     5    21   ar
    12     6     7    2
    13     6     8   am
    14     8     9    1
    15     8    34    1
    16     9    10    1
    17     9    35    1
    18     9    36    1
    19    10    20   ar
    20    10    11   ar
    21    11    12   ar
    22    11    37    1
    23    12    13    1
    24    12    14   ar
    25    14    19   ar
    26    14    15    1
    27    15    16    1
    28    16    17    1
    29    16    38    1
    30    16    39    1
    31    17    18    1
    32    17    40    1
    33    17    41    1
    34    18    19    1
    35    19    20   ar
    36    20    42    1
    37    21    22   ar
    38    21    43    1
    39    22    23   ar
    40    22    44    1
    41    23    24    1
    42    24    25    1
    43    25    29    1
    44    25    26    1
    45    25    45    1
    46    26    27    1
    47    26    46    1
    48    26    47    1
    49    27    28    1
    50    27    48    1
    51    27    49    1
    52    28    29    1
    53    28    50    1
    54    28    51    1
    55    29    52    1
    56    29    53    1
@<TRIPOS>SUBSTRUCTURE
     1 ZINC000410354665        1 TEMP              0 ****  ****    0 ROOT


##########                                Name:    ZINC001573443776
##########                DOCK_Rotatable_Bonds:                   8
##########                         Heavy_Atoms:                  28
##########                    Molecular_Weight:             386.457
##########                DOCK_Rotatable_Bonds:                   8
##########                       Formal_Charge:          0.00999954
##########                     HBond_Acceptors:                  10
##########                        HBond_Donors:                   3
##########                         Heavy_Atoms:                  28
##########                          Grid_Score:          -35.786232
##########                     Grid_vdw_energy:          -35.192707
##########                      Grid_es_energy:           -0.593527
##########           Internal_energy_repulsive:           31.689590

@<TRIPOS>MOLECULE
ZINC001573443776
 54 56 1 0 0
SMALL
USER_CHARGES


@<TRIPOS>ATOM
      1 C1        -11.9971   -1.5332   55.6125 C.3     1  ZINC001573443776   -0.1800
      2 C2        -11.0063   -0.8576   56.5251 C.2     1  ZINC001573443776    0.5100
      3 O3        -11.2900   -0.6591   57.6876 O.2     1  ZINC001573443776   -0.5400
      4 N4         -9.8051   -0.4739   56.0496 N.am    1  ZINC001573443776   -0.6100
      5 C5         -8.8286    0.1859   56.9271 C.3     1  ZINC001573443776    0.1100
      6 C6         -8.3934    1.5034   56.2777 C.3     1  ZINC001573443776   -0.1300
      7 C7         -7.8799    1.2251   54.8632 C.3     1  ZINC001573443776   -0.1000
      8 C8         -9.0047    0.6197   54.0203 C.3     1  ZINC001573443776   -0.1200
      9 H9         -9.8495    1.3078   53.9926 H       1  ZINC001573443776    0.1000
     10 C10        -8.5078    0.3766   52.6184 C.2     1  ZINC001573443776    0.5200
     11 O11        -9.0164   -0.4872   51.9360 O.2     1  ZINC001573443776   -0.5300
     12 N12        -7.4979    1.1193   52.1233 N.am    1  ZINC001573443776   -0.7300
     13 C13        -7.0160    0.8842   50.7600 C.3     1  ZINC001573443776    0.1100
     14 C14        -6.6160    2.2169   50.1235 C.3     1  ZINC001573443776    0.1400
     15 H15        -6.2012    2.0360   49.1320 H       1  ZINC001573443776    0.0900
     16 C16        -7.8486    3.1156   50.0045 C.3     1  ZINC001573443776   -0.1700
     17 N17        -5.6105    2.8756   50.9609 N.pl3   1  ZINC001573443776   -0.7200
     18 C18        -4.2596    2.7170   50.6786 C.ar    1  ZINC001573443776    0.4300
     19 C19        -3.3186    3.4653   51.3800 C.ar    1  ZINC001573443776   -0.2500
     20 C20        -1.9775    3.3014   51.0936 C.ar    1  ZINC001573443776    0.0100
     21 C21        -1.6161    2.3826   50.1025 C.ar    1  ZINC001573443776   -0.1400
     22 C22        -0.1880    2.1699   49.7585 C.2     1  ZINC001573443776    0.2400
     23 N23         0.5667    2.9511   49.0114 N.2     1  ZINC001573443776   -0.3000
     24 N24         1.7414    2.4246   48.9519 N.pl3   1  ZINC001573443776   -0.2300
     25 N25         1.7551    1.3350   49.6373 N.2     1  ZINC001573443776   -0.0500
     26 N26         0.5870    1.1492   50.1519 N.2     1  ZINC001573443776   -0.2700
     27 C27        -2.6139    1.6703   49.4438 C.ar    1  ZINC001573443776    0.2300
     28 C28        -2.2387    0.6775   48.3740 C.3     1  ZINC001573443776   -0.1200
     29 N29        -3.8830    1.8515   49.7491 N.ar    1  ZINC001573443776   -0.5400
     30 C30        -9.4447   -0.7129   54.6455 C.3     1  ZINC001573443776    0.1200
     31 H31       -12.6813   -0.7892   55.2046 H       1  ZINC001573443776    0.0900
     32 H32       -11.4649   -2.0231   54.7973 H       1  ZINC001573443776    0.0800
     33 H33       -12.5620   -2.2760   56.1758 H       1  ZINC001573443776    0.1000
     34 H34        -9.2863    0.3894   57.8952 H       1  ZINC001573443776    0.1000
     35 H35        -7.9609   -0.4604   57.0594 H       1  ZINC001573443776    0.0700
     36 H36        -9.2440    2.1834   56.2288 H       1  ZINC001573443776    0.0700
     37 H37        -7.5987    1.9562   56.8707 H       1  ZINC001573443776    0.0800
     38 H38        -7.5466    2.1577   54.4078 H       1  ZINC001573443776    0.0800
     39 H39        -7.0452    0.5259   54.9109 H       1  ZINC001573443776    0.0700
     40 H40        -7.0903    1.8095   52.6695 H       1  ZINC001573443776    0.4000
     41 H41        -6.1511    0.2216   50.7894 H       1  ZINC001573443776    0.0900
     42 H42        -7.8074    0.4226   50.1693 H       1  ZINC001573443776    0.0800
     43 H43        -8.5968    2.6254   49.3816 H       1  ZINC001573443776    0.0700
     44 H44        -8.2635    3.2965   50.9961 H       1  ZINC001573443776    0.0700
     45 H45        -7.5637    4.0649   49.5511 H       1  ZINC001573443776    0.0700
     46 H46        -5.8879    3.4225   51.7124 H       1  ZINC001573443776    0.4100
     47 H47        -3.6335    4.1662   52.1389 H       1  ZINC001573443776    0.1400
     48 H48        -1.2259    3.8691   51.6220 H       1  ZINC001573443776    0.1400
     49 H49         2.4968    2.7916   48.4664 H       1  ZINC001573443776    0.4800
     50 H50        -2.0875   -0.3032   48.8252 H       1  ZINC001573443776    0.0800
     51 H51        -3.0391    0.6184   47.6364 H       1  ZINC001573443776    0.0800
     52 H52        -1.3184    0.9989   47.8865 H       1  ZINC001573443776    0.1100
     53 H53        -8.6262   -1.4306   54.5898 H       1  ZINC001573443776    0.0800
     54 H54       -10.3103   -1.1005   54.1082 H       1  ZINC001573443776    0.0900
@<TRIPOS>BOND
     1     1     2    1
     2     1    31    1
     3     1    32    1
     4     1    33    1
     5     2     3    2
     6     2     4   am
     7     4    30    1
     8     4     5    1
     9     5     6    1
    10     5    34    1
    11     5    35    1
    12     6     7    1
    13     6    36    1
    14     6    37    1
    15     7     8    1
    16     7    38    1
    17     7    39    1
    18     8     9    1
    19     8    10    1
    20     8    30    1
    21    10    11    2
    22    10    12   am
    23    12    13    1
    24    12    40    1
    25    13    14    1
    26    13    41    1
    27    13    42    1
    28    14    15    1
    29    14    16    1
    30    14    17    1
    31    16    43    1
    32    16    44    1
    33    16    45    1
    34    17    18    1
    35    17    46    1
    36    18    29   ar
    37    18    19   ar
    38    19    20   ar
    39    19    47    1
    40    20    21   ar
    41    20    48    1
    42    21    22    1
    43    21    27   ar
    44    22    26    1
    45    22    23    2
    46    23    24    1
    47    24    25    1
    48    24    49    1
    49    25    26    2
    50    27    28    1
    51    27    29   ar
    52    28    50    1
    53    28    51    1
    54    28    52    1
    55    30    53    1
    56    30    54    1
@<TRIPOS>SUBSTRUCTURE
     1 ZINC001573443776        1 TEMP              0 ****  ****    0 ROOT


##########                                Name:    ZINC000375302598
##########                DOCK_Rotatable_Bonds:                   8
##########                         Heavy_Atoms:                  27
##########                    Molecular_Weight:             368.479
##########                DOCK_Rotatable_Bonds:                   8
##########                       Formal_Charge:               -0.02
##########                     HBond_Acceptors:                   6
##########                        HBond_Donors:                   1
##########                         Heavy_Atoms:                  27
##########                          Grid_Score:          -35.653885
##########                     Grid_vdw_energy:          -34.487919
##########                      Grid_es_energy:           -1.165967
##########           Internal_energy_repulsive:           12.157178

@<TRIPOS>MOLECULE
ZINC000375302598
 55 58 1 0 0
SMALL
USER_CHARGES


@<TRIPOS>ATOM
      1 C1         -0.8408    0.9163   49.0290 C.3     1  ZINC000375302598   -0.1500
      2 C2         -2.3013    0.4895   48.8681 C.3     1  ZINC000375302598   -0.0300
      3 C3         -3.1960    1.4947   49.5464 C.2     1  ZINC000375302598    0.1800
      4 N4         -4.4507    1.7435   49.2578 N.2     1  ZINC000375302598   -0.4700
      5 C5         -4.8355    2.7056   50.1153 C.2     1  ZINC000375302598    0.1800
      6 C6         -6.2006    3.3398   50.1901 C.3     1  ZINC000375302598    0.1500
      7 N7         -7.0816    2.5088   51.0214 N.3     1  ZINC000375302598   -0.5300
      8 C8         -7.1332    1.1301   50.5185 C.3     1  ZINC000375302598    0.0500
      9 C9         -8.1676    0.3331   51.3165 C.3     1  ZINC000375302598   -0.1100
     10 C10        -7.7795    0.3416   52.7976 C.3     1  ZINC000375302598   -0.1300
     11 C11        -7.6854    1.7905   53.2842 C.3     1  ZINC000375302598    0.1500
     12 H12        -8.6608    2.2687   53.1938 H       1  ZINC000375302598    0.1000
     13 N13        -7.2596    1.8091   54.6857 N.am    1  ZINC000375302598   -0.7300
     14 C14        -8.1732    1.9548   55.6658 C.2     1  ZINC000375302598    0.5200
     15 O15        -9.3478    2.0721   55.3873 O.2     1  ZINC000375302598   -0.5300
     16 C16        -7.7353    1.9722   57.1076 C.3     1  ZINC000375302598   -0.1100
     17 C17        -8.8390    1.3754   57.9831 C.3     1  ZINC000375302598   -0.1200
     18 H18        -9.8496    1.7214   57.7664 H       1  ZINC000375302598    0.1200
     19 C19        -8.4950    1.0683   59.4420 C.3     1  ZINC000375302598   -0.1700
     20 C20        -8.6716   -0.0752   58.4398 C.3     1  ZINC000375302598   -0.1100
     21 H21        -7.7750   -0.6044   58.1168 H       1  ZINC000375302598    0.1100
     22 C22        -9.9164   -0.9167   58.5564 C.ar    1  ZINC000375302598   -0.0500
     23 C23       -10.5961   -1.3068   57.4176 C.ar    1  ZINC000375302598   -0.1200
     24 C24       -11.7378   -2.0787   57.5246 C.ar    1  ZINC000375302598   -0.1200
     25 C25       -12.1997   -2.4608   58.7702 C.ar    1  ZINC000375302598   -0.1300
     26 C26       -11.5195   -2.0714   59.9088 C.ar    1  ZINC000375302598   -0.1200
     27 C27       -10.3753   -1.3031   59.8017 C.ar    1  ZINC000375302598   -0.1100
     28 C28        -6.6651    2.5453   52.4291 C.3     1  ZINC000375302598    0.0500
     29 N29        -3.8142    2.9875   50.8676 N.2     1  ZINC000375302598   -0.3800
     30 O30        -2.8639    2.2989   50.5609 O.3     1  ZINC000375302598    0.0800
     31 H31        -0.5918    0.9673   50.0890 H       1  ZINC000375302598    0.0600
     32 H32        -0.1938    0.1893   48.5383 H       1  ZINC000375302598    0.0800
     33 H33        -0.6965    1.8963   48.5742 H       1  ZINC000375302598    0.0600
     34 H34        -2.5503    0.4386   47.8082 H       1  ZINC000375302598    0.1100
     35 H35        -2.4456   -0.4905   49.3228 H       1  ZINC000375302598    0.1000
     36 H36        -6.1160    4.3332   50.6306 H       1  ZINC000375302598    0.0700
     37 H37        -6.6186    3.4216   49.1868 H       1  ZINC000375302598    0.1100
     38 H38        -7.4144    1.1380   49.4654 H       1  ZINC000375302598    0.0800
     39 H39        -6.1532    0.6663   50.6291 H       1  ZINC000375302598    0.0400
     40 H40        -9.1505    0.7884   51.1951 H       1  ZINC000375302598    0.0700
     41 H41        -8.1945   -0.6944   50.9532 H       1  ZINC000375302598    0.0700
     42 H42        -8.5367   -0.1883   53.3757 H       1  ZINC000375302598    0.0700
     43 H43        -6.8142   -0.1485   52.9241 H       1  ZINC000375302598    0.0600
     44 H44        -6.3200    1.7164   54.9084 H       1  ZINC000375302598    0.4000
     45 H45        -6.8252    1.3825   57.2181 H       1  ZINC000375302598    0.1000
     46 H46        -7.5422    2.9995   57.4165 H       1  ZINC000375302598    0.1000
     47 H47        -7.4824    1.2914   59.7780 H       1  ZINC000375302598    0.1000
     48 H48        -9.2795    1.2118   60.1850 H       1  ZINC000375302598    0.1000
     49 H49       -10.2352   -1.0083   56.4444 H       1  ZINC000375302598    0.1200
     50 H50       -12.2692   -2.3829   56.6349 H       1  ZINC000375302598    0.1200
     51 H51       -13.0922   -3.0633   58.8537 H       1  ZINC000375302598    0.1200
     52 H52       -11.8805   -2.3696   60.8820 H       1  ZINC000375302598    0.1200
     53 H53        -9.8439   -0.9989   60.6914 H       1  ZINC000375302598    0.1200
     54 H54        -5.6871    2.0748   52.5308 H       1  ZINC000375302598    0.0400
     55 H55        -6.6062    3.5810   52.7637 H       1  ZINC000375302598    0.0900
@<TRIPOS>BOND
     1     1     2    1
     2     1    31    1
     3     1    32    1
     4     1    33    1
     5     2     3    1
     6     2    34    1
     7     2    35    1
     8     3    30    1
     9     3     4    2
    10     4     5    1
    11     5     6    1
    12     5    29    2
    13     6     7    1
    14     6    36    1
    15     6    37    1
    16     7    28    1
    17     7     8    1
    18     8     9    1
    19     8    38    1
    20     8    39    1
    21     9    10    1
    22     9    40    1
    23     9    41    1
    24    10    11    1
    25    10    42    1
    26    10    43    1
    27    11    12    1
    28    11    13    1
    29    11    28    1
    30    13    14   am
    31    13    44    1
    32    14    15    2
    33    14    16    1
    34    16    17    1
    35    16    45    1
    36    16    46    1
    37    17    18    1
    38    17    20    1
    39    17    19    1
    40    19    20    1
    41    19    47    1
    42    19    48    1
    43    20    21    1
    44    20    22    1
    45    22    27   ar
    46    22    23   ar
    47    23    24   ar
    48    23    49    1
    49    24    25   ar
    50    24    50    1
    51    25    26   ar
    52    25    51    1
    53    26    27   ar
    54    26    52    1
    55    27    53    1
    56    28    54    1
    57    28    55    1
    58    29    30    1
@<TRIPOS>SUBSTRUCTURE
     1 ZINC000375302598        1 TEMP              0 ****  ****    0 ROOT


##########                                Name:    ZINC001109848453
##########                DOCK_Rotatable_Bonds:                   8
##########                         Heavy_Atoms:                  24
##########                    Molecular_Weight:             328.337
##########                DOCK_Rotatable_Bonds:                   8
##########                       Formal_Charge:          0.00999966
##########                     HBond_Acceptors:                  11
##########                        HBond_Donors:                   2
##########                         Heavy_Atoms:                  24
##########                          Grid_Score:          -35.611507
##########                     Grid_vdw_energy:          -35.018635
##########                      Grid_es_energy:           -0.592871
##########           Internal_energy_repulsive:            9.557285

@<TRIPOS>MOLECULE
ZINC001109848453
 40 43 1 0 0
SMALL
USER_CHARGES


@<TRIPOS>ATOM
      1 O1         -7.5399    1.3702   49.5476 O.2     1  ZINC001109848453   -0.5000
      2 C2         -6.9943    0.9524   50.5469 C.2     1  ZINC001109848453    0.5000
      3 C3         -7.3676   -0.3986   51.1004 C.3     1  ZINC001109848453    0.1100
      4 N4         -8.4658   -0.2475   52.0582 N.pl3   1  ZINC001109848453   -0.3700
      5 C5         -8.3577   -0.0179   53.3783 C.2     1  ZINC001109848453    0.2600
      6 N6         -9.5647    0.0533   53.8782 N.2     1  ZINC001109848453   -0.5400
      7 C7        -10.4651   -0.1249   52.9124 C.2     1  ZINC001109848453    0.2000
      8 N8         -9.8408   -0.3078   51.7786 N.2     1  ZINC001109848453   -0.2900
      9 N9         -6.0500    1.6939   51.1593 N.am    1  ZINC001109848453   -0.7300
     10 C10        -5.6871    3.0073   50.6212 C.3     1  ZINC001109848453    0.1700
     11 H11        -6.0745    3.1043   49.6070 H       1  ZINC001109848453    0.1000
     12 C12        -4.1636    3.1468   50.6007 C.3     1  ZINC001109848453    0.1200
     13 N13        -3.5747    1.9748   49.9481 N.pl3   1  ZINC001109848453   -0.6800
     14 C14        -2.1987    1.8632   49.8354 C.2     1  ZINC001109848453    0.4900
     15 N15        -1.4095    2.7406   50.4244 N.2     1  ZINC001109848453   -0.5300
     16 C16        -0.0810    2.6471   50.3260 C.2     1  ZINC001109848453    0.1400
     17 C17         0.5047    1.6559   49.6228 C.2     1  ZINC001109848453   -0.0500
     18 N18        -0.2655    0.7189   48.9919 N.pl3   1  ZINC001109848453   -0.1800
     19 N19        -0.0090   -0.3128   48.2686 N.2     1  ZINC001109848453   -0.1000
     20 N20        -1.1153   -0.8674   47.9116 N.2     1  ZINC001109848453   -0.0400
     21 N21        -2.1148   -0.2094   48.3942 N.2     1  ZINC001109848453   -0.2600
     22 C22        -1.6269    0.8037   49.0923 C.2     1  ZINC001109848453    0.1000
     23 C23        -6.2877    4.1037   51.5035 C.3     1  ZINC001109848453   -0.1800
     24 C24        -7.4790    3.7265   52.3864 C.3     1  ZINC001109848453   -0.1700
     25 C25        -6.1065    3.9709   53.0169 C.3     1  ZINC001109848453   -0.1700
     26 H26        -7.6833   -1.0505   50.2857 H       1  ZINC001109848453    0.1300
     27 H27        -6.5051   -0.8366   51.6027 H       1  ZINC001109848453    0.1200
     28 H28        -7.4354    0.0885   53.9301 H       1  ZINC001109848453    0.2200
     29 H29       -11.5370   -0.1156   53.0443 H       1  ZINC001109848453    0.2200
     30 H30        -5.6109    1.3580   51.9563 H       1  ZINC001109848453    0.4000
     31 H31        -3.8884    4.0461   50.0497 H       1  ZINC001109848453    0.1000
     32 H32        -3.7916    3.2188   51.6227 H       1  ZINC001109848453    0.0900
     33 H33        -4.1484    1.2769   49.5949 H       1  ZINC001109848453    0.4200
     34 H34         0.5383    3.3813   50.8199 H       1  ZINC001109848453    0.2000
     35 H35         1.5814    1.6027   49.5579 H       1  ZINC001109848453    0.1900
     36 H36        -6.2720    5.1083   51.0810 H       1  ZINC001109848453    0.1100
     37 H37        -8.2475    4.4830   52.5448 H       1  ZINC001109848453    0.1000
     38 H38        -7.8349    2.6974   52.3387 H       1  ZINC001109848453    0.1000
     39 H39        -5.5595    3.1025   53.3840 H       1  ZINC001109848453    0.1200
     40 H40        -5.9721    4.8881   53.5901 H       1  ZINC001109848453    0.0900
@<TRIPOS>BOND
     1     1     2    2
     2     2     3    1
     3     2     9   am
     4     3     4    1
     5     3    26    1
     6     3    27    1
     7     4     8    1
     8     4     5    1
     9     5     6    2
    10     5    28    1
    11     6     7    1
    12     7     8    2
    13     7    29    1
    14     9    10    1
    15     9    30    1
    16    10    11    1
    17    10    12    1
    18    10    23    1
    19    12    13    1
    20    12    31    1
    21    12    32    1
    22    13    14    1
    23    13    33    1
    24    14    22    1
    25    14    15    2
    26    15    16    1
    27    16    17    2
    28    16    34    1
    29    17    18    1
    30    17    35    1
    31    18    22    1
    32    18    19    1
    33    19    20    2
    34    20    21    1
    35    21    22    2
    36    23    25    1
    37    23    24    1
    38    23    36    1
    39    24    25    1
    40    24    37    1
    41    24    38    1
    42    25    39    1
    43    25    40    1
@<TRIPOS>SUBSTRUCTURE
     1 ZINC001109848453        1 TEMP              0 ****  ****    0 ROOT


##########                                Name:    ZINC000766421809
##########                DOCK_Rotatable_Bonds:                   7
##########                         Heavy_Atoms:                  26
##########                    Molecular_Weight:             358.372
##########                DOCK_Rotatable_Bonds:                   7
##########                       Formal_Charge:         4.61936e-07
##########                     HBond_Acceptors:                   8
##########                        HBond_Donors:                   0
##########                         Heavy_Atoms:                  26
##########                          Grid_Score:          -35.346275
##########                     Grid_vdw_energy:          -35.317730
##########                      Grid_es_energy:           -0.028547
##########           Internal_energy_repulsive:            4.716423

@<TRIPOS>MOLECULE
ZINC000766421809
 45 47 1 0 0
SMALL
USER_CHARGES


@<TRIPOS>ATOM
      1 C1        -10.6863   -2.8432   58.5336 C.3     1  ZINC000766421809   -0.0700
      2 C2        -10.1395   -1.8878   57.5043 C.2     1  ZINC000766421809    0.0700
      3 N3         -9.3316   -0.8861   57.7401 N.2     1  ZINC000766421809   -0.2900
      4 N4         -9.0598   -0.2473   56.5234 N.pl3   1  ZINC000766421809   -0.3700
      5 C5         -8.1980    0.9229   56.3380 C.3     1  ZINC000766421809    0.1000
      6 C6         -9.7320   -0.9001   55.5522 C.2     1  ZINC000766421809    0.0700
      7 C7         -9.7302   -0.5561   54.0851 C.3     1  ZINC000766421809    0.1400
      8 O8         -8.3608   -0.4399   53.6169 O.3     1  ZINC000766421809   -0.3400
      9 C9         -8.1749   -0.3643   52.2896 C.2     1  ZINC000766421809    0.4700
     10 O10        -9.0963   -0.5771   51.5375 O.2     1  ZINC000766421809   -0.5000
     11 C11        -6.8171   -0.0139   51.7377 C.3     1  ZINC000766421809   -0.1100
     12 C12        -6.9450    1.1784   50.7874 C.3     1  ZINC000766421809   -0.0200
     13 C13        -5.5731    1.7085   50.4590 C.2     1  ZINC000766421809    0.1900
     14 N14        -4.5126    0.9963   50.1704 N.2     1  ZINC000766421809   -0.4700
     15 C15        -3.5231    1.8912   49.9495 C.2     1  ZINC000766421809    0.2200
     16 C16        -2.1185    1.5798   49.5864 C.ar    1  ZINC000766421809   -0.0300
     17 C17        -1.8304    0.4648   48.8020 C.ar    1  ZINC000766421809   -0.0500
     18 C18        -0.5230    0.1791   48.4663 C.ar    1  ZINC000766421809   -0.1500
     19 C19         0.5027    0.9988   48.9084 C.ar    1  ZINC000766421809    0.1200
     20 F20         1.7816    0.7153   48.5778 F       1  ZINC000766421809   -0.1300
     21 C21         0.2206    2.1091   49.6883 C.ar    1  ZINC000766421809   -0.1200
     22 C22         1.3404    2.9976   50.1654 C.3     1  ZINC000766421809   -0.1200
     23 C23        -1.0842    2.4050   50.0242 C.ar    1  ZINC000766421809   -0.0600
     24 N24        -4.0363    3.0827   50.1152 N.2     1  ZINC000766421809   -0.3700
     25 O25        -5.2115    2.9941   50.4018 O.3     1  ZINC000766421809    0.0900
     26 C26       -10.4034   -1.9224   56.1311 C.2     1  ZINC000766421809   -0.2400
     27 H27       -10.0070   -3.6889   58.6413 H       1  ZINC000766421809    0.0800
     28 H28       -10.7825   -2.3304   59.4905 H       1  ZINC000766421809    0.0700
     29 H29       -11.6646   -3.2016   58.2132 H       1  ZINC000766421809    0.0800
     30 H30        -7.1760    0.5951   56.1485 H       1  ZINC000766421809    0.0800
     31 H31        -8.5556    1.5067   55.4897 H       1  ZINC000766421809    0.0900
     32 H32        -8.2215    1.5376   57.2378 H       1  ZINC000766421809    0.0900
     33 H33       -10.2396   -1.3417   53.5271 H       1  ZINC000766421809    0.0900
     34 H34       -10.2478    0.3911   53.9334 H       1  ZINC000766421809    0.0900
     35 H35        -6.1474    0.2453   52.5576 H       1  ZINC000766421809    0.1200
     36 H36        -6.4136   -0.8690   51.1954 H       1  ZINC000766421809    0.1200
     37 H37        -7.4408    0.8604   49.8702 H       1  ZINC000766421809    0.1200
     38 H38        -7.5328    1.9623   51.2650 H       1  ZINC000766421809    0.1200
     39 H39        -2.6294   -0.1751   48.4575 H       1  ZINC000766421809    0.1500
     40 H40        -0.2988   -0.6849   47.8584 H       1  ZINC000766421809    0.1500
     41 H41         1.5176    3.7843   49.4321 H       1  ZINC000766421809    0.0800
     42 H42         1.0666    3.4462   51.1204 H       1  ZINC000766421809    0.0800
     43 H43         2.2469    2.4051   50.2889 H       1  ZINC000766421809    0.0700
     44 H44        -1.3031    3.2704   50.6321 H       1  ZINC000766421809    0.1400
     45 H45       -11.0363   -2.6352   55.6235 H       1  ZINC000766421809    0.1500
@<TRIPOS>BOND
     1     1     2    1
     2     1    27    1
     3     1    28    1
     4     1    29    1
     5     2    26    1
     6     2     3    2
     7     3     4    1
     8     4     5    1
     9     4     6    1
    10     5    30    1
    11     5    31    1
    12     5    32    1
    13     6     7    1
    14     6    26    2
    15     7     8    1
    16     7    33    1
    17     7    34    1
    18     8     9    1
    19     9    10    2
    20     9    11    1
    21    11    12    1
    22    11    35    1
    23    11    36    1
    24    12    13    1
    25    12    37    1
    26    12    38    1
    27    13    25    1
    28    13    14    2
    29    14    15    1
    30    15    16    1
    31    15    24    2
    32    16    23   ar
    33    16    17   ar
    34    17    18   ar
    35    17    39    1
    36    18    19   ar
    37    18    40    1
    38    19    20    1
    39    19    21   ar
    40    21    22    1
    41    21    23   ar
    42    22    41    1
    43    22    42    1
    44    22    43    1
    45    23    44    1
    46    24    25    1
    47    26    45    1
@<TRIPOS>SUBSTRUCTURE
     1 ZINC000766421809        1 TEMP              0 ****  ****    0 ROOT


##########                                Name:    ZINC000767361237
##########                DOCK_Rotatable_Bonds:                  10
##########                         Heavy_Atoms:                  30
##########                    Molecular_Weight:             409.439
##########                DOCK_Rotatable_Bonds:                  10
##########                       Formal_Charge:          -0.0300005
##########                     HBond_Acceptors:                   7
##########                        HBond_Donors:                   1
##########                         Heavy_Atoms:                  30
##########                          Grid_Score:          -35.214264
##########                     Grid_vdw_energy:          -34.961979
##########                      Grid_es_energy:           -0.252284
##########           Internal_energy_repulsive:           14.796905

@<TRIPOS>MOLECULE
ZINC000767361237
 53 55 1 0 0
SMALL
USER_CHARGES


@<TRIPOS>ATOM
      1 C1         -8.2209   -1.8928   59.7617 C.3     1  ZINC000767361237   -0.1200
      2 C2         -8.8362   -1.2637   58.5383 C.ar    1  ZINC000767361237   -0.0900
      3 C3         -8.1838   -0.2322   57.8892 C.ar    1  ZINC000767361237   -0.1200
      4 C4         -8.7482    0.3448   56.7669 C.ar    1  ZINC000767361237   -0.1100
      5 C5         -9.9648   -0.1099   56.2936 C.ar    1  ZINC000767361237   -0.0800
      6 C6        -10.5803    0.5195   55.0705 C.3     1  ZINC000767361237   -0.0800
      7 H7        -10.1039    1.4807   54.8777 H       1  ZINC000767361237    0.0900
      8 C8        -12.0776    0.7301   55.3040 C.3     1  ZINC000767361237   -0.1500
      9 C9        -10.3765   -0.4013   53.8657 C.3     1  ZINC000767361237    0.1300
     10 H10       -11.1480   -0.2023   53.1217 H       1  ZINC000767361237    0.1400
     11 O11       -10.4620   -1.7638   54.2878 O.3     1  ZINC000767361237   -0.5200
     12 C12        -9.0192   -0.1464   53.2625 C.2     1  ZINC000767361237    0.4300
     13 O13        -8.2427   -1.0602   53.1143 O.2     1  ZINC000767361237   -0.5000
     14 O14        -8.6730    1.0958   52.8897 O.3     1  ZINC000767361237   -0.3300
     15 C15        -7.2534    1.3770   52.7719 C.3     1  ZINC000767361237    0.0100
     16 C16        -7.0459    2.8627   52.6278 C.2     1  ZINC000767361237    0.3700
     17 O17        -7.9986    3.6016   52.5599 O.2     1  ZINC000767361237   -0.4200
     18 C18        -5.6495    3.4261   52.5685 C.3     1  ZINC000767361237   -0.1800
     19 C19        -5.3419    3.8773   51.1392 C.3     1  ZINC000767361237    0.1200
     20 N20        -4.1478    3.1812   50.6537 N.am    1  ZINC000767361237   -0.5800
     21 C21        -2.8918    3.4594   51.0471 C.2     1  ZINC000767361237    0.5700
     22 O22        -2.5731    4.3143   51.8487 O.2     1  ZINC000767361237   -0.4600
     23 C23        -1.9647    2.5500   50.3412 C.ar    1  ZINC000767361237   -0.1400
     24 C24        -0.5904    2.3764   50.3439 C.ar    1  ZINC000767361237   -0.0400
     25 C25        -0.0190    1.4026   49.5390 C.ar    1  ZINC000767361237   -0.0900
     26 C26        -0.8109    0.6051   48.7350 C.ar    1  ZINC000767361237   -0.0900
     27 C27        -2.1878    0.7675   48.7219 C.ar    1  ZINC000767361237   -0.0400
     28 C28        -2.7727    1.7364   49.5209 C.ar    1  ZINC000767361237   -0.1400
     29 C29        -4.1635    2.1757   49.7601 C.2     1  ZINC000767361237    0.5700
     30 O30        -5.1546    1.7085   49.2361 O.2     1  ZINC000767361237   -0.4600
     31 C31       -10.6165   -1.1423   56.9418 C.ar    1  ZINC000767361237   -0.1100
     32 C32       -10.0503   -1.7219   58.0619 C.ar    1  ZINC000767361237   -0.1200
     33 H33        -7.5826   -2.7236   59.4611 H       1  ZINC000767361237    0.0700
     34 H34        -7.6247   -1.1498   60.2915 H       1  ZINC000767361237    0.0700
     35 H35        -9.0104   -2.2600   60.4175 H       1  ZINC000767361237    0.0700
     36 H36        -7.2333    0.1230   58.2590 H       1  ZINC000767361237    0.1200
     37 H37        -8.2388    1.1512   56.2603 H       1  ZINC000767361237    0.1200
     38 H38       -12.5228    1.1853   54.4193 H       1  ZINC000767361237    0.0800
     39 H39       -12.5540   -0.2312   55.4967 H       1  ZINC000767361237    0.0700
     40 H40       -12.2228    1.3861   56.1623 H       1  ZINC000767361237    0.0600
     41 H41        -9.9342   -1.9665   55.0723 H       1  ZINC000767361237    0.3900
     42 H42        -6.7375    1.0229   53.6645 H       1  ZINC000767361237    0.1100
     43 H43        -6.8537    0.8676   51.8951 H       1  ZINC000767361237    0.1100
     44 H44        -5.5728    4.2789   53.2430 H       1  ZINC000767361237    0.1100
     45 H45        -4.9352    2.6596   52.8692 H       1  ZINC000767361237    0.1100
     46 H46        -6.1878    3.6412   50.4937 H       1  ZINC000767361237    0.1100
     47 H47        -5.1652    4.9528   51.1278 H       1  ZINC000767361237    0.1100
     48 H48         0.0334    2.9970   50.9701 H       1  ZINC000767361237    0.1400
     49 H49         1.0524    1.2668   49.5402 H       1  ZINC000767361237    0.1400
     50 H50        -0.3541   -0.1497   48.1121 H       1  ZINC000767361237    0.1400
     51 H51        -2.8018    0.1411   48.0919 H       1  ZINC000767361237    0.1400
     52 H52       -11.5668   -1.4978   56.5718 H       1  ZINC000767361237    0.1200
     53 H53       -10.5594   -2.5284   58.5684 H       1  ZINC000767361237    0.1200
@<TRIPOS>BOND
     1     1     2    1
     2     1    33    1
     3     1    34    1
     4     1    35    1
     5     2    32   ar
     6     2     3   ar
     7     3     4   ar
     8     3    36    1
     9     4     5   ar
    10     4    37    1
    11     5     6    1
    12     5    31   ar
    13     6     7    1
    14     6     8    1
    15     6     9    1
    16     8    38    1
    17     8    39    1
    18     8    40    1
    19     9    10    1
    20     9    11    1
    21     9    12    1
    22    11    41    1
    23    12    13    2
    24    12    14    1
    25    14    15    1
    26    15    16    1
    27    15    42    1
    28    15    43    1
    29    16    17    2
    30    16    18    1
    31    18    19    1
    32    18    44    1
    33    18    45    1
    34    19    20    1
    35    19    46    1
    36    19    47    1
    37    20    29   am
    38    20    21   am
    39    21    22    2
    40    21    23    1
    41    23    28   ar
    42    23    24   ar
    43    24    25   ar
    44    24    48    1
    45    25    26   ar
    46    25    49    1
    47    26    27   ar
    48    26    50    1
    49    27    28   ar
    50    27    51    1
    51    28    29    1
    52    29    30    2
    53    31    32   ar
    54    31    52    1
    55    32    53    1
@<TRIPOS>SUBSTRUCTURE
     1 ZINC000767361237        1 TEMP              0 ****  ****    0 ROOT


##########                                Name:    ZINC000062291520
##########                DOCK_Rotatable_Bonds:                  10
##########                         Heavy_Atoms:                  29
##########                    Molecular_Weight:             398.502
##########                DOCK_Rotatable_Bonds:                  10
##########                       Formal_Charge:          -0.0100006
##########                     HBond_Acceptors:                   6
##########                        HBond_Donors:                   1
##########                         Heavy_Atoms:                  29
##########                          Grid_Score:          -35.203339
##########                     Grid_vdw_energy:          -34.284210
##########                      Grid_es_energy:           -0.919128
##########           Internal_energy_repulsive:           19.764526

@<TRIPOS>MOLECULE
ZINC000062291520
 59 61 1 0 0
SMALL
USER_CHARGES


@<TRIPOS>ATOM
      1 C1         -8.2292    1.7240   56.0812 C.3     1  ZINC000062291520    0.0300
      2 O2         -7.8455    0.7158   57.0185 O.3     1  ZINC000062291520   -0.3100
      3 C3         -8.0230    0.9989   58.3368 C.ar    1  ZINC000062291520    0.1000
      4 C4         -8.3302    2.2897   58.7344 C.ar    1  ZINC000062291520   -0.1700
      5 C5         -8.5048    2.5769   60.0758 C.ar    1  ZINC000062291520   -0.1200
      6 C6         -8.3792    1.5771   61.0218 C.ar    1  ZINC000062291520   -0.1200
      7 C7         -8.0789    0.2851   60.6310 C.ar    1  ZINC000062291520   -0.1700
      8 C8         -7.9027   -0.0093   59.2889 C.ar    1  ZINC000062291520    0.1000
      9 O9         -7.6073   -1.2795   58.9030 O.3     1  ZINC000062291520   -0.3100
     10 C10        -8.0210   -2.3348   59.7732 C.3     1  ZINC000062291520    0.0700
     11 C11        -9.5481   -2.4284   59.7713 C.3     1  ZINC000062291520   -0.1400
     12 C12       -10.0118   -3.0484   58.4783 C.2     1  ZINC000062291520    0.5200
     13 O13        -9.9530   -4.2503   58.3269 O.2     1  ZINC000062291520   -0.5400
     14 N14       -10.4916   -2.2673   57.4905 N.am    1  ZINC000062291520   -0.7200
     15 C15       -10.9440   -2.8702   56.2342 C.3     1  ZINC000062291520    0.1600
     16 C16       -11.3396   -1.7827   55.2689 C.ar    1  ZINC000062291520   -0.1100
     17 C17       -12.4283   -0.9769   55.5440 C.ar    1  ZINC000062291520   -0.1000
     18 C18       -12.7910    0.0211   54.6586 C.ar    1  ZINC000062291520   -0.1200
     19 C19       -12.0649    0.2130   53.4983 C.ar    1  ZINC000062291520   -0.0900
     20 C20       -10.9762   -0.5934   53.2229 C.ar    1  ZINC000062291520   -0.0800
     21 C21       -10.1847   -0.3845   51.9576 C.3     1  ZINC000062291520    0.0900
     22 N22        -8.9106    0.2719   52.2796 N.3     1  ZINC000062291520   -0.5300
     23 C23        -7.7710   -0.5407   51.8296 C.3     1  ZINC000062291520    0.0100
     24 C24        -6.4666    0.1496   52.2372 C.3     1  ZINC000062291520    0.0600
     25 O25        -6.4403    1.4700   51.6885 O.3     1  ZINC000062291520   -0.3800
     26 C26        -7.5356    2.2891   52.1064 C.3     1  ZINC000062291520    0.0900
     27 H27        -7.5085    2.4082   53.1895 H       1  ZINC000062291520    0.0700
     28 C28        -7.4309    3.6616   51.4387 C.3     1  ZINC000062291520   -0.1500
     29 C29        -8.8508    1.6205   51.6976 C.3     1  ZINC000062291520    0.0200
     30 C30       -10.6101   -1.5874   54.1108 C.ar    1  ZINC000062291520   -0.0900
     31 H31        -9.2918    1.9394   56.1940 H       1  ZINC000062291520    0.0500
     32 H32        -7.6530    2.6305   56.2663 H       1  ZINC000062291520    0.0600
     33 H33        -8.0357    1.3710   55.0683 H       1  ZINC000062291520    0.1000
     34 H34        -8.4289    3.0728   57.9973 H       1  ZINC000062291520    0.1400
     35 H35        -8.7402    3.5846   60.3849 H       1  ZINC000062291520    0.1300
     36 H36        -8.5163    1.8053   62.0684 H       1  ZINC000062291520    0.1300
     37 H37        -7.9819   -0.4945   61.3721 H       1  ZINC000062291520    0.1400
     38 H38        -7.6708   -2.1297   60.7848 H       1  ZINC000062291520    0.0700
     39 H39        -7.5987   -3.2781   59.4267 H       1  ZINC000062291520    0.0700
     40 H40        -9.9734   -1.4295   59.8683 H       1  ZINC000062291520    0.1100
     41 H41        -9.8753   -3.0455   60.6081 H       1  ZINC000062291520    0.1100
     42 H42       -10.5375   -1.3060   57.6111 H       1  ZINC000062291520    0.4000
     43 H43       -10.1362   -3.4620   55.8036 H       1  ZINC000062291520    0.0800
     44 H44       -11.8022   -3.5136   56.4283 H       1  ZINC000062291520    0.0800
     45 H45       -12.9954   -1.1266   56.4509 H       1  ZINC000062291520    0.1200
     46 H46       -13.6415    0.6511   54.8738 H       1  ZINC000062291520    0.1300
     47 H47       -12.3483    0.9926   52.8067 H       1  ZINC000062291520    0.1200
     48 H48        -9.9885   -1.3486   51.4885 H       1  ZINC000062291520    0.0500
     49 H49       -10.7541    0.2437   51.2724 H       1  ZINC000062291520    0.0900
     50 H50        -7.8214   -1.5262   52.2926 H       1  ZINC000062291520    0.0900
     51 H51        -7.8045   -0.6458   50.7453 H       1  ZINC000062291520    0.0400
     52 H52        -6.4088    0.2059   53.3243 H       1  ZINC000062291520    0.0600
     53 H53        -5.6190   -0.4200   51.8561 H       1  ZINC000062291520    0.1000
     54 H54        -7.4597    3.5420   50.3557 H       1  ZINC000062291520    0.0600
     55 H55        -8.2660    4.2854   51.7576 H       1  ZINC000062291520    0.0700
     56 H56        -6.4926    4.1355   51.7271 H       1  ZINC000062291520    0.0700
     57 H57        -8.9012    1.5507   50.6110 H       1  ZINC000062291520    0.0400
     58 H58        -9.6894    2.2126   52.0641 H       1  ZINC000062291520    0.0900
     59 H59        -9.7568   -2.2141   53.8979 H       1  ZINC000062291520    0.1200
@<TRIPOS>BOND
     1     1     2    1
     2     1    31    1
     3     1    32    1
     4     1    33    1
     5     2     3    1
     6     3     8   ar
     7     3     4   ar
     8     4     5   ar
     9     4    34    1
    10     5     6   ar
    11     5    35    1
    12     6     7   ar
    13     6    36    1
    14     7     8   ar
    15     7    37    1
    16     8     9    1
    17     9    10    1
    18    10    11    1
    19    10    38    1
    20    10    39    1
    21    11    12    1
    22    11    40    1
    23    11    41    1
    24    12    13    2
    25    12    14   am
    26    14    15    1
    27    14    42    1
    28    15    16    1
    29    15    43    1
    30    15    44    1
    31    16    30   ar
    32    16    17   ar
    33    17    18   ar
    34    17    45    1
    35    18    19   ar
    36    18    46    1
    37    19    20   ar
    38    19    47    1
    39    20    21    1
    40    20    30   ar
    41    21    22    1
    42    21    48    1
    43    21    49    1
    44    22    29    1
    45    22    23    1
    46    23    24    1
    47    23    50    1
    48    23    51    1
    49    24    25    1
    50    24    52    1
    51    24    53    1
    52    25    26    1
    53    26    27    1
    54    26    28    1
    55    26    29    1
    56    28    54    1
    57    28    55    1
    58    28    56    1
    59    29    57    1
    60    29    58    1
    61    30    59    1
@<TRIPOS>SUBSTRUCTURE
     1 ZINC000062291520        1 TEMP              0 ****  ****    0 ROOT


##########                                Name:    ZINC000676564986
##########                DOCK_Rotatable_Bonds:                   5
##########                         Heavy_Atoms:                  25
##########                    Molecular_Weight:             347.444
##########                DOCK_Rotatable_Bonds:                   5
##########                       Formal_Charge:          -0.0100005
##########                     HBond_Acceptors:                   6
##########                        HBond_Donors:                   1
##########                         Heavy_Atoms:                  25
##########                          Grid_Score:          -35.143871
##########                     Grid_vdw_energy:          -35.311127
##########                      Grid_es_energy:            0.167256
##########           Internal_energy_repulsive:           11.300185

@<TRIPOS>MOLECULE
ZINC000676564986
 42 45 1 0 0
SMALL
USER_CHARGES


@<TRIPOS>ATOM
      1 C1          1.2549    0.5437   48.6054 C.3     1  ZINC000676564986    0.0800
      2 N2         -0.2030    0.5999   48.7377 N.pl3   1  ZINC000676564986   -0.4800
      3 C3         -1.0981   -0.2575   48.1702 C.2     1  ZINC000676564986    0.2500
      4 N4         -2.3105    0.0857   48.4958 N.2     1  ZINC000676564986   -0.4600
      5 C5         -2.2706    1.1821   49.2906 C.ar    1  ZINC000676564986   -0.1100
      6 C6         -3.2388    1.9761   49.9280 C.ar    1  ZINC000676564986    0.5100
      7 N7         -4.5863    1.6867   49.8026 N.pl3   1  ZINC000676564986   -0.6900
      8 C8         -5.5830    2.5447   50.4482 C.3     1  ZINC000676564986    0.1700
      9 C9         -6.5283    1.6950   51.2579 C.ar    1  ZINC000676564986   -0.0800
     10 C10        -6.3095    0.3339   51.3689 C.ar    1  ZINC000676564986   -0.1100
     11 C11        -7.1735   -0.4477   52.1100 C.ar    1  ZINC000676564986   -0.0700
     12 C12        -8.2640    0.1348   52.7446 C.ar    1  ZINC000676564986   -0.1300
     13 S13        -9.3689   -0.8585   53.6917 S.3     1  ZINC000676564986   -0.0100
     14 C14        -9.0187   -0.3715   55.3485 C.ar    1  ZINC000676564986   -0.1000
     15 C15        -7.9439    0.4682   55.6151 C.ar    1  ZINC000676564986   -0.1200
     16 C16        -7.6727    0.8482   56.9146 C.ar    1  ZINC000676564986   -0.1000
     17 C17        -8.4691    0.3942   57.9502 C.ar    1  ZINC000676564986   -0.1200
     18 C18        -9.5395   -0.4417   57.6886 C.ar    1  ZINC000676564986   -0.1000
     19 C19        -9.8198   -0.8216   56.3909 C.ar    1  ZINC000676564986   -0.1000
     20 C20        -8.4807    1.5028   52.6307 C.ar    1  ZINC000676564986   -0.0700
     21 C21        -7.6094    2.2791   51.8927 C.ar    1  ZINC000676564986   -0.1100
     22 N22        -2.8305    3.0114   50.6547 N.ar    1  ZINC000676564986   -0.5900
     23 C23        -1.5470    3.2947   50.7804 C.ar    1  ZINC000676564986    0.3600
     24 N24        -0.6054    2.5796   50.2014 N.ar    1  ZINC000676564986   -0.5600
     25 C25        -0.9177    1.5218   49.4602 C.ar    1  ZINC000676564986    0.3000
     26 H26         1.6681   -0.0783   49.3995 H       1  ZINC000676564986    0.0800
     27 H27         1.5158    0.1171   47.6368 H       1  ZINC000676564986    0.0900
     28 H28         1.6658    1.5504   48.6816 H       1  ZINC000676564986    0.0900
     29 H29        -0.8393   -1.0975   47.5427 H       1  ZINC000676564986    0.2200
     30 H30        -4.8710    0.9159   49.2872 H       1  ZINC000676564986    0.4200
     31 H31        -5.0803    3.2552   51.1043 H       1  ZINC000676564986    0.0800
     32 H32        -6.1435    3.0870   49.6868 H       1  ZINC000676564986    0.0800
     33 H33        -5.4620   -0.1183   50.8752 H       1  ZINC000676564986    0.1300
     34 H34        -7.0023   -1.5106   52.1960 H       1  ZINC000676564986    0.1400
     35 H35        -7.3214    0.8229   54.8070 H       1  ZINC000676564986    0.1200
     36 H36        -6.8375    1.5004   57.1226 H       1  ZINC000676564986    0.1300
     37 H37        -8.2544    0.6927   58.9656 H       1  ZINC000676564986    0.1300
     38 H38       -10.1592   -0.7943   58.4996 H       1  ZINC000676564986    0.1300
     39 H39       -10.6560   -1.4740   56.1873 H       1  ZINC000676564986    0.1300
     40 H40        -9.3271    1.9589   53.1226 H       1  ZINC000676564986    0.1300
     41 H41        -7.7771    3.3422   51.8038 H       1  ZINC000676564986    0.1300
     42 H42        -1.2587    4.1453   51.3803 H       1  ZINC000676564986    0.2000
@<TRIPOS>BOND
     1     1     2    1
     2     1    26    1
     3     1    27    1
     4     1    28    1
     5     2    25    1
     6     2     3    1
     7     3     4    2
     8     3    29    1
     9     4     5    1
    10     5    25   ar
    11     5     6   ar
    12     6     7    1
    13     6    22   ar
    14     7     8    1
    15     7    30    1
    16     8     9    1
    17     8    31    1
    18     8    32    1
    19     9    21   ar
    20     9    10   ar
    21    10    11   ar
    22    10    33    1
    23    11    12   ar
    24    11    34    1
    25    12    13    1
    26    12    20   ar
    27    13    14    1
    28    14    19   ar
    29    14    15   ar
    30    15    16   ar
    31    15    35    1
    32    16    17   ar
    33    16    36    1
    34    17    18   ar
    35    17    37    1
    36    18    19   ar
    37    18    38    1
    38    19    39    1
    39    20    21   ar
    40    20    40    1
    41    21    41    1
    42    22    23   ar
    43    23    24   ar
    44    23    42    1
    45    24    25   ar
@<TRIPOS>SUBSTRUCTURE
     1 ZINC000676564986        1 TEMP              0 ****  ****    0 ROOT


##########                                Name:    ZINC000150894060
##########                DOCK_Rotatable_Bonds:                  10
##########                         Heavy_Atoms:                  27
##########                    Molecular_Weight:              366.42
##########                DOCK_Rotatable_Bonds:                  10
##########                       Formal_Charge:        -6.70552e-07
##########                     HBond_Acceptors:                   7
##########                        HBond_Donors:                   2
##########                         Heavy_Atoms:                  27
##########                          Grid_Score:          -35.138058
##########                     Grid_vdw_energy:          -34.182629
##########                      Grid_es_energy:           -0.955429
##########           Internal_energy_repulsive:           19.794722

@<TRIPOS>MOLECULE
ZINC000150894060
 49 51 1 0 0
SMALL
USER_CHARGES


@<TRIPOS>ATOM
      1 C1         -8.0933    0.7856   55.3722 C.3     1  ZINC000150894060   -0.1000
      2 C2         -9.0660   -0.3181   55.0454 C.2     1  ZINC000150894060   -0.0800
      3 C3         -9.3300   -0.8318   53.8082 C.2     1  ZINC000150894060   -0.1000
      4 C4         -8.7132   -0.4046   52.5480 C.2     1  ZINC000150894060    0.6100
      5 O5         -9.0318   -0.9397   51.5025 O.2     1  ZINC000150894060   -0.5100
      6 N6         -7.7937    0.5807   52.5479 N.am    1  ZINC000150894060   -0.7200
      7 C7         -7.1789    1.0087   51.2889 C.3     1  ZINC000150894060    0.1200
      8 C8         -6.8895    2.5099   51.3471 C.3     1  ZINC000150894060   -0.1500
      9 C9         -6.3355    2.9752   49.9989 C.3     1  ZINC000150894060    0.1200
     10 N10        -5.0233    2.3641   49.7730 N.am    1  ZINC000150894060   -0.7300
     11 C11        -3.9103    2.9677   50.2348 C.2     1  ZINC000150894060    0.5600
     12 O12        -3.9953    4.0184   50.8400 O.2     1  ZINC000150894060   -0.5300
     13 C13        -2.5860    2.3519   50.0053 C.ar    1  ZINC000150894060   -0.1300
     14 C14        -2.4722    1.2100   49.2107 C.ar    1  ZINC000150894060   -0.0900
     15 C15        -1.2333    0.6407   49.0001 C.ar    1  ZINC000150894060   -0.0900
     16 C16        -0.1052    1.1988   49.5749 C.ar    1  ZINC000150894060   -0.0800
     17 C17         1.2446    0.5711   49.3409 C.3     1  ZINC000150894060    0.1700
     18 N18         1.9863    1.3612   48.3550 N.pl3   1  ZINC000150894060   -0.3700
     19 C19         2.7227    2.4625   48.6119 C.2     1  ZINC000150894060    0.0500
     20 C20         3.2429    2.8935   47.4394 C.2     1  ZINC000150894060   -0.2700
     21 C21         2.8096    2.0258   46.4315 C.2     1  ZINC000150894060    0.0400
     22 N22         2.0612    1.1034   46.9802 N.2     1  ZINC000150894060   -0.2900
     23 C23        -0.2111    2.3309   50.3632 C.ar    1  ZINC000150894060   -0.1100
     24 C24        -1.4433    2.9133   50.5775 C.ar    1  ZINC000150894060   -0.0600
     25 O25       -10.2576   -1.8014   53.9480 O.3     1  ZINC000150894060   -0.1700
     26 C26       -10.5891   -1.9164   55.2406 C.2     1  ZINC000150894060    0.0000
     27 C27        -9.8716   -1.0213   55.9546 C.2     1  ZINC000150894060   -0.2300
     28 H28        -7.1121    0.3567   55.5757 H       1  ZINC000150894060    0.0800
     29 H29        -8.0224    1.4697   54.5266 H       1  ZINC000150894060    0.0900
     30 H30        -8.4417    1.3287   56.2507 H       1  ZINC000150894060    0.0700
     31 H31        -7.5389    1.0065   53.3813 H       1  ZINC000150894060    0.4100
     32 H32        -6.2469    0.4646   51.1362 H       1  ZINC000150894060    0.0800
     33 H33        -7.8597    0.8017   50.4632 H       1  ZINC000150894060    0.0800
     34 H34        -7.8107    3.0493   51.5671 H       1  ZINC000150894060    0.0800
     35 H35        -6.1566    2.7086   52.1291 H       1  ZINC000150894060    0.0800
     36 H36        -7.0175    2.6760   49.2031 H       1  ZINC000150894060    0.0800
     37 H37        -6.2350    4.0605   50.0024 H       1  ZINC000150894060    0.0800
     38 H38        -4.9556    1.5250   49.2911 H       1  ZINC000150894060    0.4000
     39 H39        -3.3519    0.7730   48.7620 H       1  ZINC000150894060    0.1300
     40 H40        -1.1439   -0.2429   48.3855 H       1  ZINC000150894060    0.1300
     41 H41         1.8006    0.5450   50.2781 H       1  ZINC000150894060    0.1100
     42 H42         1.1133   -0.4447   48.9680 H       1  ZINC000150894060    0.1000
     43 H43         2.8700    2.9185   49.5798 H       1  ZINC000150894060    0.1700
     44 H44         3.8796    3.7555   47.3054 H       1  ZINC000150894060    0.1500
     45 H45         3.0547    2.1013   45.3824 H       1  ZINC000150894060    0.1800
     46 H46         0.6732    2.7618   50.8087 H       1  ZINC000150894060    0.1300
     47 H47        -1.5245    3.7971   51.1928 H       1  ZINC000150894060    0.1400
     48 H48       -11.3083   -2.6128   55.6459 H       1  ZINC000150894060    0.2100
     49 H49        -9.9148   -0.8707   57.0232 H       1  ZINC000150894060    0.1600
@<TRIPOS>BOND
     1     1     2    1
     2     1    28    1
     3     1    29    1
     4     1    30    1
     5     2    27    1
     6     2     3    2
     7     3     4    1
     8     3    25    1
     9     4     5    2
    10     4     6   am
    11     6     7    1
    12     6    31    1
    13     7     8    1
    14     7    32    1
    15     7    33    1
    16     8     9    1
    17     8    34    1
    18     8    35    1
    19     9    10    1
    20     9    36    1
    21     9    37    1
    22    10    11   am
    23    10    38    1
    24    11    12    2
    25    11    13    1
    26    13    24   ar
    27    13    14   ar
    28    14    15   ar
    29    14    39    1
    30    15    16   ar
    31    15    40    1
    32    16    17    1
    33    16    23   ar
    34    17    18    1
    35    17    41    1
    36    17    42    1
    37    18    22    1
    38    18    19    1
    39    19    20    2
    40    19    43    1
    41    20    21    1
    42    20    44    1
    43    21    22    2
    44    21    45    1
    45    23    24   ar
    46    23    46    1
    47    24    47    1
    48    25    26    1
    49    26    27    2
    50    26    48    1
    51    27    49    1
@<TRIPOS>SUBSTRUCTURE
     1 ZINC000150894060        1 TEMP              0 ****  ****    0 ROOT


##########                                Name:    ZINC000434204837
##########                DOCK_Rotatable_Bonds:                   7
##########                         Heavy_Atoms:                  29
##########                    Molecular_Weight:             406.511
##########                DOCK_Rotatable_Bonds:                   7
##########                       Formal_Charge:          -0.0200002
##########                     HBond_Acceptors:                   8
##########                        HBond_Donors:                   0
##########                         Heavy_Atoms:                  29
##########                          Grid_Score:          -35.047424
##########                     Grid_vdw_energy:          -35.092766
##########                      Grid_es_energy:            0.045341
##########           Internal_energy_repulsive:           15.429085

@<TRIPOS>MOLECULE
ZINC000434204837
 51 54 1 0 0
SMALL
USER_CHARGES


@<TRIPOS>ATOM
      1 C1         -1.3995    3.9658   51.4475 C.3     1  ZINC000434204837   -0.1300
      2 C2         -1.7415    2.8094   50.5436 C.ar    1  ZINC000434204837   -0.0700
      3 C3         -0.7334    2.0383   49.9965 C.ar    1  ZINC000434204837   -0.1200
      4 C4         -1.0471    0.9774   49.1672 C.ar    1  ZINC000434204837   -0.1100
      5 C5         -2.3689    0.6878   48.8856 C.ar    1  ZINC000434204837   -0.1300
      6 C6         -3.3774    1.4586   49.4336 C.ar    1  ZINC000434204837   -0.0900
      7 C7         -3.0639    2.5165   50.2661 C.ar    1  ZINC000434204837   -0.1000
      8 C8         -4.1632    3.3567   50.8634 C.3     1  ZINC000434204837    0.0100
      9 C9         -5.4381    2.5548   50.9125 C.2     1  ZINC000434204837    0.2000
     10 N10        -5.9684    1.9953   51.9733 N.2     1  ZINC000434204837   -0.4600
     11 C11        -7.0906    1.3925   51.5420 C.2     1  ZINC000434204837    0.1700
     12 C12        -8.0618    0.6072   52.3852 C.3     1  ZINC000434204837   -0.0300
     13 S13        -8.7846    1.6919   53.6412 S.3     1  ZINC000434204837    0.0900
     14 C14       -10.4936    1.3299   53.4111 C.2     1  ZINC000434204837    0.2100
     15 N15       -11.2750    1.8107   52.4681 N.2     1  ZINC000434204837   -0.3300
     16 N16       -12.4648    1.3425   52.5874 N.2     1  ZINC000434204837   -0.0200
     17 N17       -12.5340    0.5427   53.5958 N.2     1  ZINC000434204837   -0.0700
     18 N18       -11.2513    0.4982   54.1696 N.pl3   1  ZINC000434204837   -0.3100
     19 C19       -10.8444   -0.2405   55.2898 C.ar    1  ZINC000434204837    0.1100
     20 C20       -10.5033   -1.5794   55.1536 C.ar    1  ZINC000434204837   -0.1100
     21 C21       -10.1025   -2.3045   56.2587 C.ar    1  ZINC000434204837   -0.0900
     22 C22       -10.0412   -1.6982   57.5000 C.ar    1  ZINC000434204837   -0.0600
     23 C23        -9.6034   -2.4921   58.7038 C.3     1  ZINC000434204837   -0.0600
     24 C24        -8.4305   -1.7827   59.3836 C.3     1  ZINC000434204837   -0.1500
     25 C25       -10.7685   -2.6093   59.6886 C.3     1  ZINC000434204837   -0.1500
     26 C26       -10.3804   -0.3648   57.6388 C.ar    1  ZINC000434204837   -0.1000
     27 C27       -10.7765    0.3668   56.5363 C.ar    1  ZINC000434204837   -0.0900
     28 N28        -7.1838    1.6120   50.2646 N.2     1  ZINC000434204837   -0.3600
     29 O29        -6.2473    2.2826   49.8843 O.3     1  ZINC000434204837    0.0900
     30 H30        -1.3491    3.6178   52.4793 H       1  ZINC000434204837    0.0800
     31 H31        -0.4347    4.3813   51.1567 H       1  ZINC000434204837    0.0700
     32 H32        -2.1674    4.7344   51.3605 H       1  ZINC000434204837    0.0700
     33 H33         0.2995    2.2646   50.2166 H       1  ZINC000434204837    0.1300
     34 H34        -0.2593    0.3754   48.7392 H       1  ZINC000434204837    0.1200
     35 H35        -2.6140   -0.1404   48.2373 H       1  ZINC000434204837    0.1300
     36 H36        -4.4102    1.2325   49.2133 H       1  ZINC000434204837    0.1300
     37 H37        -3.8833    3.6566   51.8733 H       1  ZINC000434204837    0.1200
     38 H38        -4.3159    4.2446   50.2499 H       1  ZINC000434204837    0.1200
     39 H39        -8.8533    0.2078   51.7511 H       1  ZINC000434204837    0.1300
     40 H40        -7.5375   -0.2145   52.8730 H       1  ZINC000434204837    0.1400
     41 H41       -10.5517   -2.0536   54.1844 H       1  ZINC000434204837    0.1400
     42 H42        -9.8370   -3.3459   56.1534 H       1  ZINC000434204837    0.1400
     43 H43        -9.2924   -3.4880   58.3887 H       1  ZINC000434204837    0.0800
     44 H44        -8.7416   -0.7866   59.6987 H       1  ZINC000434204837    0.0600
     45 H45        -8.1139   -2.3569   60.2543 H       1  ZINC000434204837    0.0600
     46 H46        -7.6005   -1.6991   58.6819 H       1  ZINC000434204837    0.0600
     47 H47       -11.6041   -3.1147   59.2044 H       1  ZINC000434204837    0.0600
     48 H48       -10.4519   -3.1835   60.5593 H       1  ZINC000434204837    0.0600
     49 H49       -11.0795   -1.6133   60.0037 H       1  ZINC000434204837    0.0600
     50 H50       -10.3319    0.1059   58.6097 H       1  ZINC000434204837    0.1400
     51 H51       -11.0413    1.4081   56.6453 H       1  ZINC000434204837    0.1400
@<TRIPOS>BOND
     1     1     2    1
     2     1    30    1
     3     1    31    1
     4     1    32    1
     5     2     7   ar
     6     2     3   ar
     7     3     4   ar
     8     3    33    1
     9     4     5   ar
    10     4    34    1
    11     5     6   ar
    12     5    35    1
    13     6     7   ar
    14     6    36    1
    15     7     8    1
    16     8     9    1
    17     8    37    1
    18     8    38    1
    19     9    29    1
    20     9    10    2
    21    10    11    1
    22    11    12    1
    23    11    28    2
    24    12    13    1
    25    12    39    1
    26    12    40    1
    27    13    14    1
    28    14    18    1
    29    14    15    2
    30    15    16    1
    31    16    17    2
    32    17    18    1
    33    18    19    1
    34    19    27   ar
    35    19    20   ar
    36    20    21   ar
    37    20    41    1
    38    21    22   ar
    39    21    42    1
    40    22    23    1
    41    22    26   ar
    42    23    24    1
    43    23    25    1
    44    23    43    1
    45    24    44    1
    46    24    45    1
    47    24    46    1
    48    25    47    1
    49    25    48    1
    50    25    49    1
    51    26    27   ar
    52    26    50    1
    53    27    51    1
    54    28    29    1
@<TRIPOS>SUBSTRUCTURE
     1 ZINC000434204837        1 TEMP              0 ****  ****    0 ROOT


##########                                Name:    ZINC000482540246
##########                DOCK_Rotatable_Bonds:                  10
##########                         Heavy_Atoms:                  30
##########                    Molecular_Weight:              409.46
##########                DOCK_Rotatable_Bonds:                  10
##########                       Formal_Charge:         2.83122e-07
##########                     HBond_Acceptors:                   7
##########                        HBond_Donors:                   2
##########                         Heavy_Atoms:                  30
##########                          Grid_Score:          -35.040810
##########                     Grid_vdw_energy:          -34.631752
##########                      Grid_es_energy:           -0.409058
##########           Internal_energy_repulsive:           15.356630

@<TRIPOS>MOLECULE
ZINC000482540246
 54 56 1 0 0
SMALL
USER_CHARGES


@<TRIPOS>ATOM
      1 C1        -14.6135   -5.2897   56.4464 C.3     1  ZINC000482540246    0.0400
      2 O2        -15.0896   -4.3671   57.4284 O.3     1  ZINC000482540246   -0.3100
      3 C3        -14.1713   -3.5489   58.0012 C.ar    1  ZINC000482540246    0.3300
      4 C4        -12.8449   -3.6125   57.5946 C.ar    1  ZINC000482540246   -0.1800
      5 C5        -11.9179   -2.7723   58.1870 C.ar    1  ZINC000482540246   -0.0100
      6 C6        -10.4691   -2.8099   57.7738 C.3     1  ZINC000482540246    0.2000
      7 H7        -10.2976   -3.6713   57.1284 H       1  ZINC000482540246    0.1000
      8 C8         -9.5865   -2.9215   59.0186 C.3     1  ZINC000482540246   -0.1600
      9 N9        -10.1364   -1.5817   57.0478 N.am    1  ZINC000482540246   -0.7400
     10 C10       -10.1474   -1.5715   55.7001 C.2     1  ZINC000482540246    0.7100
     11 O11       -10.4320   -2.5821   55.0868 O.2     1  ZINC000482540246   -0.5800
     12 N12        -9.8429   -0.4412   55.0322 N.am    1  ZINC000482540246   -0.7400
     13 C13        -9.8566   -0.4297   53.5673 C.3     1  ZINC000482540246    0.2100
     14 H14       -10.0912   -1.4281   53.1982 H       1  ZINC000482540246    0.1200
     15 C15        -8.4820   -0.0038   53.0478 C.3     1  ZINC000482540246    0.0500
     16 O16        -8.5688    0.2836   51.6507 O.3     1  ZINC000482540246   -0.3000
     17 C17        -7.5197    0.9416   51.0896 C.ar    1  ZINC000482540246    0.1000
     18 C18        -6.2772    0.3315   51.0149 C.ar    1  ZINC000482540246   -0.1800
     19 C19        -5.2121    1.0020   50.4435 C.ar    1  ZINC000482540246   -0.0900
     20 C20        -5.3839    2.2801   49.9462 C.ar    1  ZINC000482540246   -0.1300
     21 C21        -6.6218    2.8926   50.0190 C.ar    1  ZINC000482540246   -0.1200
     22 C22        -7.6923    2.2244   50.5844 C.ar    1  ZINC000482540246    0.0700
     23 F23        -8.9017    2.8224   50.6557 F       1  ZINC000482540246   -0.1300
     24 C24       -10.9004    0.5432   53.0823 C.ar    1  ZINC000482540246   -0.1000
     25 C25       -11.8209    0.1508   52.1286 C.ar    1  ZINC000482540246   -0.0800
     26 C26       -12.7783    1.0433   51.6837 C.ar    1  ZINC000482540246   -0.1200
     27 C27       -12.8154    2.3279   52.1928 C.ar    1  ZINC000482540246   -0.1200
     28 C28       -11.8955    2.7200   53.1471 C.ar    1  ZINC000482540246   -0.1200
     29 C29       -10.9407    1.8262   53.5952 C.ar    1  ZINC000482540246   -0.1000
     30 C30       -12.3531   -1.8944   59.1696 C.ar    1  ZINC000482540246   -0.2100
     31 C31       -13.6877   -1.8852   59.5244 C.ar    1  ZINC000482540246    0.1500
     32 N32       -14.5489   -2.6945   58.9378 N.ar    1  ZINC000482540246   -0.5400
     33 H33       -15.4475   -5.8818   56.0696 H       1  ZINC000482540246    0.1000
     34 H34       -14.1566   -4.7405   55.6232 H       1  ZINC000482540246    0.0600
     35 H35       -13.8732   -5.9505   56.8975 H       1  ZINC000482540246    0.0600
     36 H36       -12.5407   -4.3084   56.8268 H       1  ZINC000482540246    0.1500
     37 H37        -9.7581   -2.0601   59.6640 H       1  ZINC000482540246    0.0600
     38 H38        -9.8341   -3.8353   59.5587 H       1  ZINC000482540246    0.0700
     39 H39        -8.5386   -2.9487   58.7197 H       1  ZINC000482540246    0.0700
     40 H40        -9.9083   -0.7758   57.5370 H       1  ZINC000482540246    0.4000
     41 H41        -9.6148    0.3647   55.5214 H       1  ZINC000482540246    0.4000
     42 H42        -8.1516    0.8869   53.5822 H       1  ZINC000482540246    0.0800
     43 H43        -7.7668   -0.8104   53.2090 H       1  ZINC000482540246    0.0800
     44 H44        -6.1414   -0.6670   51.4034 H       1  ZINC000482540246    0.1400
     45 H45        -4.2440    0.5266   50.3859 H       1  ZINC000482540246    0.1300
     46 H46        -4.5499    2.8016   49.5003 H       1  ZINC000482540246    0.1400
     47 H47        -6.7534    3.8916   49.6301 H       1  ZINC000482540246    0.1400
     48 H48       -11.7919   -0.8529   51.7308 H       1  ZINC000482540246    0.1200
     49 H49       -13.4971    0.7369   50.9380 H       1  ZINC000482540246    0.1200
     50 H50       -13.5630    3.0253   51.8447 H       1  ZINC000482540246    0.1200
     51 H51       -11.9242    3.7237   53.5447 H       1  ZINC000482540246    0.1200
     52 H52       -10.2220    2.1325   54.3408 H       1  ZINC000482540246    0.1200
     53 H53       -11.6556   -1.2257   59.6520 H       1  ZINC000482540246    0.1400
     54 H54       -14.0316   -1.2039   60.2885 H       1  ZINC000482540246    0.1600
@<TRIPOS>BOND
     1     1     2    1
     2     1    33    1
     3     1    34    1
     4     1    35    1
     5     2     3    1
     6     3    32   ar
     7     3     4   ar
     8     4     5   ar
     9     4    36    1
    10     5     6    1
    11     5    30   ar
    12     6     7    1
    13     6     8    1
    14     6     9    1
    15     8    37    1
    16     8    38    1
    17     8    39    1
    18     9    10   am
    19     9    40    1
    20    10    11    2
    21    10    12   am
    22    12    13    1
    23    12    41    1
    24    13    14    1
    25    13    15    1
    26    13    24    1
    27    15    16    1
    28    15    42    1
    29    15    43    1
    30    16    17    1
    31    17    22   ar
    32    17    18   ar
    33    18    19   ar
    34    18    44    1
    35    19    20   ar
    36    19    45    1
    37    20    21   ar
    38    20    46    1
    39    21    22   ar
    40    21    47    1
    41    22    23    1
    42    24    29   ar
    43    24    25   ar
    44    25    26   ar
    45    25    48    1
    46    26    27   ar
    47    26    49    1
    48    27    28   ar
    49    27    50    1
    50    28    29   ar
    51    28    51    1
    52    29    52    1
    53    30    31   ar
    54    30    53    1
    55    31    32   ar
    56    31    54    1
@<TRIPOS>SUBSTRUCTURE
     1 ZINC000482540246        1 TEMP              0 ****  ****    0 ROOT


##########                                Name:    ZINC000193795672
##########                DOCK_Rotatable_Bonds:                  10
##########                         Heavy_Atoms:                  23
##########                    Molecular_Weight:              332.47
##########                DOCK_Rotatable_Bonds:                  10
##########                       Formal_Charge:        -2.98023e-07
##########                     HBond_Acceptors:                   6
##########                        HBond_Donors:                   3
##########                         Heavy_Atoms:                  23
##########                          Grid_Score:          -35.015617
##########                     Grid_vdw_energy:          -35.453922
##########                      Grid_es_energy:            0.438304
##########           Internal_energy_repulsive:           11.083961

@<TRIPOS>MOLECULE
ZINC000193795672
 47 48 1 0 0
SMALL
USER_CHARGES


@<TRIPOS>ATOM
      1 C1          0.5816    0.4594   48.6148 C.3     1  <0>        -0.1000
      2 C2         -0.7009    1.0822   49.1033 C.ar    1  <0>        -0.2000
      3 C3         -0.6683    2.1750   49.9590 C.ar    1  <0>        -0.0300
      4 C4         -1.8682    2.7170   50.3837 C.ar    1  <0>        -0.2400
      5 C5         -3.0598    2.1520   49.9414 C.ar    1  <0>         0.4000
      6 N6         -4.2727    2.6867   50.3603 N.pl3   1  <0>        -0.7300
      7 C7         -5.5277    2.0140   50.0159 C.3     1  <0>         0.1300
      8 C8         -5.8479    0.9581   51.0760 C.3     1  <0>        -0.1400
      9 C9         -7.3470    0.6528   51.0550 C.3     1  <0>         0.1400
     10 N10        -7.6799   -0.2362   52.1708 N.am    1  <0>        -0.7500
     11 C11        -8.9449   -0.2941   52.6321 C.2     1  <0>         0.7100
     12 O12        -9.8102    0.3904   52.1211 O.2     1  <0>        -0.5900
     13 N13        -9.2509   -1.1107   53.6597 N.am    1  <0>        -0.7400
     14 C14       -10.6256   -1.1723   54.1622 C.3     1  <0>         0.1700
     15 H15       -11.3210   -1.1325   53.3238 H       1  <0>         0.0900
     16 C16       -10.8291   -2.4787   54.9322 C.3     1  <0>        -0.1700
     17 C17       -10.8816    0.0141   55.0940 C.3     1  <0>        -0.0600
     18 C18        -9.8192    0.0521   56.1621 C.2     1  <0>        -0.1700
     19 C19        -8.6619    0.7093   56.0726 C.2     1  <0>        -0.1400
     20 C20        -7.8415    0.5996   57.1821 C.2     1  <0>        -0.1300
     21 C21        -8.3325   -0.1467   58.1727 C.2     1  <0>        -0.2100
     22 S22        -9.9190   -0.7569   57.7207 S.3     1  <0>         0.0900
     23 N23        -3.0491    1.1098   49.1247 N.ar    1  <0>        -0.5400
     24 C24        -1.9201    0.5753   48.6998 C.ar    1  <0>         0.1500
     25 H25         0.8929    0.9461   47.6906 H       1  <0>         0.0700
     26 H26         1.3572    0.5846   49.3704 H       1  <0>         0.0600
     27 H27         0.4223   -0.6030   48.4301 H       1  <0>         0.0700
     28 H28         0.2726    2.5922   50.2862 H       1  <0>         0.1300
     29 H29        -1.8795    3.5671   51.0498 H       1  <0>         0.1300
     30 H30        -4.2880    3.5052   50.8806 H       1  <0>         0.4000
     31 H31        -6.3339    2.7465   49.9777 H       1  <0>         0.0700
     32 H32        -5.4271    1.5331   49.0429 H       1  <0>         0.0700
     33 H33        -5.2886    0.0473   50.8621 H       1  <0>         0.0800
     34 H34        -5.5674    1.3343   52.0598 H       1  <0>         0.0800
     35 H35        -7.9084    1.5821   51.1509 H       1  <0>         0.0700
     36 H36        -7.6058    0.1674   50.1141 H       1  <0>         0.0700
     37 H37        -6.9898   -0.7832   52.5777 H       1  <0>         0.4000
     38 H38        -8.5607   -1.6577   54.0666 H       1  <0>         0.3900
     39 H39       -10.1337   -2.5185   55.7705 H       1  <0>         0.0600
     40 H40       -11.8520   -2.5244   55.3061 H       1  <0>         0.0700
     41 H41       -10.6468   -3.3238   54.2684 H       1  <0>         0.0700
     42 H42       -10.8527    0.9399   54.5196 H       1  <0>         0.1000
     43 H43       -11.8611   -0.0944   55.5595 H       1  <0>         0.0800
     44 H44        -8.3858    1.2832   55.2004 H       1  <0>         0.1400
     45 H45        -6.8767    1.0814   57.2411 H       1  <0>         0.1400
     46 H46        -7.8338   -0.3432   59.1102 H       1  <0>         0.1600
     47 H47        -1.9501   -0.2746   48.0341 H       1  <0>         0.1500
@<TRIPOS>BOND
     1     1     2    1
     2     1    25    1
     3     1    26    1
     4     1    27    1
     5     2    24   ar
     6     2     3   ar
     7     3     4   ar
     8     3    28    1
     9     4     5   ar
    10     4    29    1
    11     5     6    1
    12     5    23   ar
    13     6     7    1
    14     6    30    1
    15     7     8    1
    16     7    31    1
    17     7    32    1
    18     8     9    1
    19     8    33    1
    20     8    34    1
    21     9    10    1
    22     9    35    1
    23     9    36    1
    24    10    11   am
    25    10    37    1
    26    11    12    2
    27    11    13   am
    28    13    14    1
    29    13    38    1
    30    14    15    1
    31    14    16    1
    32    14    17    1
    33    16    39    1
    34    16    40    1
    35    16    41    1
    36    17    18    1
    37    17    42    1
    38    17    43    1
    39    18    22    1
    40    18    19    2
    41    19    20    1
    42    19    44    1
    43    20    21    2
    44    20    45    1
    45    21    22    1
    46    21    46    1
    47    23    24   ar
    48    24    47    1
@<TRIPOS>SUBSTRUCTURE
     1 <0>         1 TEMP              0 ****  ****    0 ROOT


##########                                Name:    ZINC000744839011
##########                DOCK_Rotatable_Bonds:                  10
##########                         Heavy_Atoms:                  24
##########                    Molecular_Weight:              378.83
##########                DOCK_Rotatable_Bonds:                  10
##########                       Formal_Charge:           0.0300002
##########                     HBond_Acceptors:                   9
##########                        HBond_Donors:                   0
##########                         Heavy_Atoms:                  24
##########                          Grid_Score:          -35.014469
##########                     Grid_vdw_energy:          -34.031227
##########                      Grid_es_energy:           -0.983241
##########           Internal_energy_repulsive:           11.612478

@<TRIPOS>MOLECULE
ZINC000744839011
 43 43 1 0 0
SMALL
USER_CHARGES


@<TRIPOS>ATOM
      1 C1         -8.5829    0.4845   55.0125 C.3     1  ZINC000744839011    0.0400
      2 O2         -9.3230   -0.6130   54.4156 O.3     1  ZINC000744839011   -0.3600
      3 C3         -9.5890   -0.5261   53.0975 C.2     1  ZINC000744839011    0.5100
      4 O4        -10.6132   -1.0043   52.6516 O.2     1  ZINC000744839011   -0.5000
      5 C5         -8.6371    0.1493   52.1962 C.ar    1  ZINC000744839011   -0.1600
      6 C6         -7.4047   -0.4431   51.9074 C.ar    1  ZINC000744839011   -0.0100
      7 C7         -6.5184    0.1903   51.0649 C.ar    1  ZINC000744839011   -0.2100
      8 C8         -6.8475    1.4172   50.5016 C.ar    1  ZINC000744839011    0.1800
      9 O9         -5.9711    2.0379   49.6718 O.3     1  ZINC000744839011   -0.2900
     10 C10        -4.7019    2.3982   50.2209 C.3     1  ZINC000744839011    0.0500
     11 C11        -3.6069    1.5464   49.5756 C.3     1  ZINC000744839011    0.0600
     12 O12        -2.3043    2.0587   49.9620 O.3     1  ZINC000744839011   -0.3400
     13 C13        -1.2291    1.4111   49.4863 C.2     1  ZINC000744839011    0.5000
     14 O14        -1.3660    0.5342   48.6665 O.2     1  ZINC000744839011   -0.4900
     15 C15         0.1485    1.7779   49.9745 C.3     1  ZINC000744839011   -0.6400
     16 S16         1.3531    1.5067   48.6457 S.o2    1  ZINC000744839011    2.4400
     17 O17         1.4052    0.1160   48.3587 O.2     1  ZINC000744839011   -0.9100
     18 O18         1.0808    2.4226   47.5939 O.2     1  ZINC000744839011   -0.9100
     19 C19         2.9081    1.9905   49.4449 C.3     1  ZINC000744839011   -0.5700
     20 C20         2.8209    3.4527   49.8870 C.3     1  ZINC000744839011   -0.1500
     21 C21         3.1516    1.1021   50.6665 C.3     1  ZINC000744839011   -0.1500
     22 C22        -8.0734    2.0107   50.7856 C.ar    1  ZINC000744839011   -0.0800
     23 Cl23       -8.4793    3.5433   50.0783 Cl      1  ZINC000744839011   -0.0400
     24 C24        -8.9675    1.3813   51.6235 C.ar    1  ZINC000744839011   -0.0100
     25 H25        -7.6131    0.5772   54.5235 H       1  ZINC000744839011    0.0700
     26 H26        -9.1431    1.4111   54.8872 H       1  ZINC000744839011    0.0700
     27 H27        -8.4369    0.2889   56.0748 H       1  ZINC000744839011    0.1100
     28 H28        -7.1474   -1.3965   52.3450 H       1  ZINC000744839011    0.1500
     29 H29        -5.5657   -0.2670   50.8419 H       1  ZINC000744839011    0.1500
     30 H30        -4.5064    3.4521   50.0230 H       1  ZINC000744839011    0.0900
     31 H31        -4.7095    2.2259   51.2971 H       1  ZINC000744839011    0.1000
     32 H32        -3.7051    0.5138   49.9106 H       1  ZINC000744839011    0.1100
     33 H33        -3.7063    1.5875   48.4909 H       1  ZINC000744839011    0.0900
     34 H34         0.1623    2.8274   50.2689 H       1  ZINC000744839011    0.1700
     35 H35         0.4074    1.1568   50.8320 H       1  ZINC000744839011    0.1700
     36 H36         3.7310    1.8725   48.7400 H       1  ZINC000744839011    0.1400
     37 H37         3.7551    3.7434   50.3672 H       1  ZINC000744839011    0.0900
     38 H38         2.6474    4.0857   49.0167 H       1  ZINC000744839011    0.0700
     39 H39         1.9979    3.5707   50.5920 H       1  ZINC000744839011    0.0800
     40 H40         3.2137    0.0605   50.3517 H       1  ZINC000744839011    0.0800
     41 H41         4.0859    1.3929   51.1468 H       1  ZINC000744839011    0.0900
     42 H42         2.3287    1.2201   51.3715 H       1  ZINC000744839011    0.0800
     43 H43        -9.9190    1.8423   51.8437 H       1  ZINC000744839011    0.1600
@<TRIPOS>BOND
     1     1     2    1
     2     1    25    1
     3     1    26    1
     4     1    27    1
     5     2     3    1
     6     3     4    2
     7     3     5    1
     8     5    24   ar
     9     5     6   ar
    10     6     7   ar
    11     6    28    1
    12     7     8   ar
    13     7    29    1
    14     8     9    1
    15     8    22   ar
    16     9    10    1
    17    10    11    1
    18    10    30    1
    19    10    31    1
    20    11    12    1
    21    11    32    1
    22    11    33    1
    23    12    13    1
    24    13    14    2
    25    13    15    1
    26    15    16    1
    27    15    34    1
    28    15    35    1
    29    16    17    2
    30    16    18    2
    31    16    19    1
    32    19    20    1
    33    19    21    1
    34    19    36    1
    35    20    37    1
    36    20    38    1
    37    20    39    1
    38    21    40    1
    39    21    41    1
    40    21    42    1
    41    22    23    1
    42    22    24   ar
    43    24    43    1
@<TRIPOS>SUBSTRUCTURE
     1 ZINC000744839011        1 TEMP              0 ****  ****    0 ROOT


##########                                Name:    ZINC000816269301
##########                DOCK_Rotatable_Bonds:                   7
##########                         Heavy_Atoms:                  25
##########                    Molecular_Weight:             358.784
##########                DOCK_Rotatable_Bonds:                   7
##########                       Formal_Charge:           0.0100002
##########                     HBond_Acceptors:                   8
##########                        HBond_Donors:                   1
##########                         Heavy_Atoms:                  25
##########                          Grid_Score:          -35.007187
##########                     Grid_vdw_energy:          -34.092678
##########                      Grid_es_energy:           -0.914507
##########           Internal_energy_repulsive:            7.327154

@<TRIPOS>MOLECULE
ZINC000816269301
 40 42 1 0 0
SMALL
USER_CHARGES


@<TRIPOS>ATOM
      1 C1          2.0853    1.4461   49.6576 C.3     1  ZINC000816269301    0.1000
      2 N2          0.7369    1.0390   49.2547 N.pl3   1  ZINC000816269301   -0.4000
      3 N3          0.4035   -0.0106   48.3868 N.2     1  ZINC000816269301    0.0000
      4 N4         -0.8752   -0.0768   48.2635 N.2     1  ZINC000816269301   -0.2000
      5 C5         -1.4659    0.8859   49.0108 C.ar    1  ZINC000816269301   -0.0300
      6 C6         -2.7999    1.2419   49.2265 C.ar    1  ZINC000816269301    0.0500
      7 C7         -3.0979    2.3049   50.0708 C.ar    1  ZINC000816269301   -0.1400
      8 C8         -4.5043    2.6866   50.3038 C.2     1  ZINC000816269301    0.5200
      9 O9         -4.8329    3.1760   51.3661 O.2     1  ZINC000816269301   -0.5000
     10 O10        -5.4239    2.4924   49.3385 O.3     1  ZINC000816269301   -0.3500
     11 C11        -6.8170    2.6605   49.7117 C.3     1  ZINC000816269301    0.0500
     12 C12        -7.3788    1.3241   50.2009 C.3     1  ZINC000816269301    0.1200
     13 N13        -7.3943    1.3078   51.6657 N.am    1  ZINC000816269301   -0.7200
     14 C14        -8.1478    0.4030   52.3216 C.2     1  ZINC000816269301    0.5600
     15 O15        -8.8132   -0.4005   51.6977 O.2     1  ZINC000816269301   -0.5300
     16 C16        -8.1648    0.3877   53.7992 C.ar    1  ZINC000816269301   -0.1300
     17 C17        -7.3906    1.3000   54.5185 C.ar    1  ZINC000816269301   -0.0700
     18 C18        -7.4105    1.2809   55.8973 C.ar    1  ZINC000816269301   -0.1200
     19 C19        -8.1967    0.3589   56.5685 C.ar    1  ZINC000816269301   -0.0100
     20 Cl20       -8.2171    0.3413   58.3043 Cl      1  ZINC000816269301   -0.0600
     21 C21        -8.9669   -0.5488   55.8603 C.ar    1  ZINC000816269301   -0.1200
     22 C22        -8.9596   -0.5355   54.4815 C.ar    1  ZINC000816269301   -0.0500
     23 C23        -2.0671    3.0161   50.7026 C.ar    1  ZINC000816269301   -0.0200
     24 C24        -0.7643    2.6735   50.4961 C.ar    1  ZINC000816269301   -0.1300
     25 C25        -0.4455    1.6075   49.6583 C.ar    1  ZINC000816269301    0.1100
     26 H26         2.3786    0.8969   50.5523 H       1  ZINC000816269301    0.0900
     27 H27         2.7865    1.2287   48.8517 H       1  ZINC000816269301    0.1000
     28 H28         2.0943    2.5155   49.8683 H       1  ZINC000816269301    0.1000
     29 H29        -3.5940    0.6949   48.7400 H       1  ZINC000816269301    0.1600
     30 H30        -6.8930    3.4002   50.5087 H       1  ZINC000816269301    0.0800
     31 H31        -7.3866    2.9991   48.8462 H       1  ZINC000816269301    0.1000
     32 H32        -8.3942    1.1975   49.8254 H       1  ZINC000816269301    0.1000
     33 H33        -6.7522    0.5108   49.8351 H       1  ZINC000816269301    0.0900
     34 H34        -6.8623    1.9482   52.1636 H       1  ZINC000816269301    0.4000
     35 H35        -6.7770    2.0191   53.9963 H       1  ZINC000816269301    0.1400
     36 H36        -6.8118    1.9860   56.4548 H       1  ZINC000816269301    0.1400
     37 H37        -9.5779   -1.2653   56.3891 H       1  ZINC000816269301    0.1400
     38 H38        -9.5608   -1.2434   53.9303 H       1  ZINC000816269301    0.1500
     39 H39        -2.3075    3.8411   51.3569 H       1  ZINC000816269301    0.1500
     40 H40         0.0226    3.2270   50.9870 H       1  ZINC000816269301    0.1400
@<TRIPOS>BOND
     1     1     2    1
     2     1    26    1
     3     1    27    1
     4     1    28    1
     5     2    25    1
     6     2     3    1
     7     3     4    2
     8     4     5    1
     9     5    25   ar
    10     5     6   ar
    11     6     7   ar
    12     6    29    1
    13     7     8    1
    14     7    23   ar
    15     8     9    2
    16     8    10    1
    17    10    11    1
    18    11    12    1
    19    11    30    1
    20    11    31    1
    21    12    13    1
    22    12    32    1
    23    12    33    1
    24    13    14   am
    25    13    34    1
    26    14    15    2
    27    14    16    1
    28    16    22   ar
    29    16    17   ar
    30    17    18   ar
    31    17    35    1
    32    18    19   ar
    33    18    36    1
    34    19    20    1
    35    19    21   ar
    36    21    22   ar
    37    21    37    1
    38    22    38    1
    39    23    24   ar
    40    23    39    1
    41    24    25   ar
    42    24    40    1
@<TRIPOS>SUBSTRUCTURE
     1 ZINC000816269301        1 TEMP              0 ****  ****    0 ROOT


##########                                Name:    ZINC001191196975
##########                DOCK_Rotatable_Bonds:                  14
##########                         Heavy_Atoms:                  24
##########                    Molecular_Weight:             339.438
##########                DOCK_Rotatable_Bonds:                  14
##########                       Formal_Charge:          0.00999969
##########                     HBond_Acceptors:                   8
##########                        HBond_Donors:                   4
##########                         Heavy_Atoms:                  24
##########                          Grid_Score:          -34.962093
##########                     Grid_vdw_energy:          -33.628239
##########                      Grid_es_energy:           -1.333855
##########           Internal_energy_repulsive:           13.900654

@<TRIPOS>MOLECULE
ZINC001191196975
 53 53 1 0 0
SMALL
USER_CHARGES


@<TRIPOS>ATOM
      1 C1        -15.5353   -4.0570   58.9078 C.2     1  ZINC001191196975   -0.1600
      2 C2        -14.5485   -3.4057   58.3440 C.2     1  ZINC001191196975   -0.1800
      3 C3        -13.9583   -3.9043   57.0500 C.3     1  ZINC001191196975    0.1500
      4 N4        -12.5278   -3.5908   57.0128 N.am    1  ZINC001191196975   -0.7300
      5 C5        -12.1085   -2.4160   56.5024 C.2     1  ZINC001191196975    0.5100
      6 O6        -12.9155   -1.6179   56.0753 O.2     1  ZINC001191196975   -0.5200
      7 C7        -10.6368   -2.0943   56.4625 C.3     1  ZINC001191196975    0.0300
      8 N8        -10.4483   -0.6447   56.6082 N.3     1  ZINC001191196975   -0.5100
      9 C9        -10.3353   -0.2682   58.0237 C.3     1  ZINC001191196975    0.0200
     10 C10        -9.2785   -0.1867   55.8467 C.3     1  ZINC001191196975    0.0700
     11 H11        -8.3832   -0.7324   56.1443 H       1  ZINC001191196975    0.0600
     12 C12        -9.0760    1.3434   56.0054 C.3     1  ZINC001191196975   -0.1200
     13 C13        -8.3388    1.7309   54.7061 C.3     1  ZINC001191196975    0.1000
     14 N14        -8.6276    0.6867   53.7123 N.am    1  ZINC001191196975   -0.6200
     15 C15        -8.1505    0.6479   52.4524 C.2     1  ZINC001191196975    0.5300
     16 O16        -8.4572   -0.2653   51.7157 O.2     1  ZINC001191196975   -0.5400
     17 C17        -7.2358    1.7393   51.9592 C.3     1  ZINC001191196975   -0.1300
     18 C18        -6.8164    1.4409   50.5183 C.3     1  ZINC001191196975   -0.1000
     19 C19        -5.9467    2.5847   49.9930 C.3     1  ZINC001191196975   -0.1300
     20 C20        -4.4983    2.3693   50.4362 C.3     1  ZINC001191196975    0.1400
     21 N21        -3.9403    1.2102   49.7353 N.am    1  ZINC001191196975   -0.7500
     22 C22        -2.6280    1.1747   49.4301 C.2     1  ZINC001191196975    0.7000
     23 N23        -2.1144    0.1075   48.7867 N.am    1  ZINC001191196975   -0.8700
     24 O24        -1.9076    2.1053   49.7353 O.2     1  ZINC001191196975   -0.5900
     25 C25        -9.5244   -0.3124   54.3224 C.3     1  ZINC001191196975    0.1100
     26 H26       -15.9259   -4.9515   58.4454 H       1  ZINC001191196975    0.1000
     27 H27       -15.9552   -3.7021   59.8373 H       1  ZINC001191196975    0.1000
     28 H28       -14.1578   -2.5112   58.8063 H       1  ZINC001191196975    0.1200
     29 H29       -14.0958   -4.9833   56.9801 H       1  ZINC001191196975    0.0800
     30 H30       -14.4586   -3.4193   56.2118 H       1  ZINC001191196975    0.0700
     31 H31       -11.8824   -4.2287   57.3554 H       1  ZINC001191196975    0.4000
     32 H32       -10.1297   -2.6103   57.2778 H       1  ZINC001191196975    0.0700
     33 H33       -10.2191   -2.4210   55.5102 H       1  ZINC001191196975    0.1100
     34 H34        -9.5509   -0.8598   58.4956 H       1  ZINC001191196975    0.0200
     35 H35       -10.0873    0.7905   58.0993 H       1  ZINC001191196975    0.0700
     36 H36       -11.2842   -0.4558   58.5264 H       1  ZINC001191196975    0.0900
     37 H37       -10.0363    1.8548   56.0713 H       1  ZINC001191196975    0.0900
     38 H38        -8.4605    1.5625   56.8780 H       1  ZINC001191196975    0.0800
     39 H39        -8.7013    2.6944   54.3476 H       1  ZINC001191196975    0.0700
     40 H40        -7.2656    1.7814   54.8897 H       1  ZINC001191196975    0.0700
     41 H41        -7.7586    2.6951   51.9948 H       1  ZINC001191196975    0.0900
     42 H42        -6.3504    1.7855   52.5931 H       1  ZINC001191196975    0.0900
     43 H43        -6.2489    0.5107   50.4905 H       1  ZINC001191196975    0.0800
     44 H44        -7.7046    1.3434   49.8941 H       1  ZINC001191196975    0.0800
     45 H45        -5.9941    2.6066   48.9042 H       1  ZINC001191196975    0.0700
     46 H46        -6.3117    3.5313   50.3916 H       1  ZINC001191196975    0.0700
     47 H47        -3.9099    3.2555   50.1984 H       1  ZINC001191196975    0.0700
     48 H48        -4.4699    2.1920   51.5114 H       1  ZINC001191196975    0.0700
     49 H49        -4.5154    0.4682   49.4908 H       1  ZINC001191196975    0.4000
     50 H50        -1.1697    0.0815   48.5681 H       1  ZINC001191196975    0.4000
     51 H51        -2.6895   -0.6344   48.5423 H       1  ZINC001191196975    0.4200
     52 H52        -9.2676   -1.3138   53.9770 H       1  ZINC001191196975    0.0800
     53 H53       -10.5636   -0.0837   54.0863 H       1  ZINC001191196975    0.0800
@<TRIPOS>BOND
     1     1     2    2
     2     1    26    1
     3     1    27    1
     4     2     3    1
     5     2    28    1
     6     3     4    1
     7     3    29    1
     8     3    30    1
     9     4     5   am
    10     4    31    1
    11     5     6    2
    12     5     7    1
    13     7     8    1
    14     7    32    1
    15     7    33    1
    16     8     9    1
    17     8    10    1
    18     9    34    1
    19     9    35    1
    20     9    36    1
    21    10    11    1
    22    10    25    1
    23    10    12    1
    24    12    13    1
    25    12    37    1
    26    12    38    1
    27    13    14    1
    28    13    39    1
    29    13    40    1
    30    14    15   am
    31    14    25    1
    32    15    16    2
    33    15    17    1
    34    17    18    1
    35    17    41    1
    36    17    42    1
    37    18    19    1
    38    18    43    1
    39    18    44    1
    40    19    20    1
    41    19    45    1
    42    19    46    1
    43    20    21    1
    44    20    47    1
    45    20    48    1
    46    21    22   am
    47    21    49    1
    48    22    23   am
    49    22    24    2
    50    23    50    1
    51    23    51    1
    52    25    52    1
    53    25    53    1
@<TRIPOS>SUBSTRUCTURE
     1 ZINC001191196975        1 TEMP              0 ****  ****    0 ROOT


##########                                Name:    ZINC001004075025
##########                DOCK_Rotatable_Bonds:                   8
##########                         Heavy_Atoms:                  25
##########                    Molecular_Weight:              349.43
##########                DOCK_Rotatable_Bonds:                   8
##########                       Formal_Charge:         -0.00999999
##########                     HBond_Acceptors:                   7
##########                        HBond_Donors:                   1
##########                         Heavy_Atoms:                  25
##########                          Grid_Score:          -34.930660
##########                     Grid_vdw_energy:          -33.999771
##########                      Grid_es_energy:           -0.930890
##########           Internal_energy_repulsive:           12.967913

@<TRIPOS>MOLECULE
ZINC001004075025
 52 54 1 0 0
SMALL
USER_CHARGES


@<TRIPOS>ATOM
      1 C1        -10.5085   -2.5999   55.2429 C.3     1  ZINC001004075025   -0.1500
      2 C2        -11.4322   -1.3925   55.4167 C.3     1  ZINC001004075025   -0.1200
      3 C3        -10.7114   -0.1274   54.9467 C.3     1  ZINC001004075025    0.0800
      4 H4        -11.4239    0.6873   54.8173 H       1  ZINC001004075025    0.0700
      5 C5         -9.6133    0.2749   55.9632 C.3     1  ZINC001004075025   -0.1500
      6 C6         -8.6499    1.0833   55.0518 C.3     1  ZINC001004075025   -0.1400
      7 C7         -8.7726    0.3398   53.7043 C.3     1  ZINC001004075025    0.0700
      8 H8         -7.9418   -0.3563   53.5891 H       1  ZINC001004075025    0.1100
      9 C9         -8.7686    1.3325   52.5705 C.2     1  ZINC001004075025    0.5300
     10 O10        -9.8127    1.8077   52.1769 O.2     1  ZINC001004075025   -0.5200
     11 N11        -7.6048    1.6923   51.9938 N.am    1  ZINC001004075025   -0.6500
     12 C12        -7.1954    2.6000   50.9115 C.3     1  ZINC001004075025    0.1100
     13 C13        -5.9735    1.6976   50.6904 C.3     1  ZINC001004075025   -0.1400
     14 C14        -4.6766    2.4571   50.4035 C.3     1  ZINC001004075025    0.1300
     15 N15        -3.7230    1.5627   49.7424 N.am    1  ZINC001004075025   -0.7200
     16 C16        -2.3987    1.7838   49.8602 C.2     1  ZINC001004075025    0.6000
     17 O17        -1.9954    2.7247   50.5165 O.2     1  ZINC001004075025   -0.5300
     18 C18        -1.4393    0.8849   49.1937 C.2     1  ZINC001004075025   -0.2700
     19 C19        -0.0874    1.0533   49.0190 C.2     1  ZINC001004075025    0.0700
     20 C20         0.7441    2.2231   49.4786 C.3     1  ZINC001004075025   -0.0300
     21 C21         1.3820    1.8955   50.8302 C.3     1  ZINC001004075025   -0.1500
     22 C22         1.8424    2.5034   48.4509 C.3     1  ZINC001004075025   -0.1500
     23 O23         0.3435   -0.0253   48.3609 O.3     1  ZINC001004075025    0.1000
     24 N24        -0.5362   -0.8133   48.1138 N.2     1  ZINC001004075025   -0.3500
     25 C25        -1.6923   -0.4169   48.5571 C.2     1  ZINC001004075025    0.0200
     26 C26        -6.1848    1.3550   52.1743 C.3     1  ZINC001004075025    0.1100
     27 O27       -10.0131   -0.3790   53.7169 O.3     1  ZINC001004075025   -0.3400
     28 H28       -11.0219   -3.5012   55.5777 H       1  ZINC001004075025    0.0600
     29 H29       -10.2404   -2.7038   54.1916 H       1  ZINC001004075025    0.0500
     30 H30        -9.6054   -2.4548   55.8356 H       1  ZINC001004075025    0.0600
     31 H31       -12.3353   -1.5376   54.8239 H       1  ZINC001004075025    0.0800
     32 H32       -11.7003   -1.2886   56.4681 H       1  ZINC001004075025    0.0700
     33 H33       -10.0222    0.9013   56.7559 H       1  ZINC001004075025    0.0900
     34 H34        -9.1186   -0.6044   56.3755 H       1  ZINC001004075025    0.0900
     35 H35        -8.9823    2.1169   54.9563 H       1  ZINC001004075025    0.0800
     36 H36        -7.6284    1.0365   55.4290 H       1  ZINC001004075025    0.0900
     37 H37        -7.8862    2.6095   50.0684 H       1  ZINC001004075025    0.0900
     38 H38        -6.9388    3.6010   51.2582 H       1  ZINC001004075025    0.0900
     39 H39        -6.1482    0.8689   50.0044 H       1  ZINC001004075025    0.1100
     40 H40        -4.8890    3.3061   49.7536 H       1  ZINC001004075025    0.0800
     41 H41        -4.2499    2.8146   51.3406 H       1  ZINC001004075025    0.0800
     42 H42        -4.0448    0.8114   49.2199 H       1  ZINC001004075025    0.4000
     43 H43         0.1087    3.1028   49.5805 H       1  ZINC001004075025    0.1300
     44 H44         2.0175    1.0158   50.7284 H       1  ZINC001004075025    0.0600
     45 H45         1.9834    2.7416   51.1627 H       1  ZINC001004075025    0.0700
     46 H46         0.5996    1.6958   51.5624 H       1  ZINC001004075025    0.0600
     47 H47         2.4777    1.6236   48.3491 H       1  ZINC001004075025    0.0600
     48 H48         1.3878    2.7367   47.4880 H       1  ZINC001004075025    0.0600
     49 H49         2.4437    3.3494   48.7834 H       1  ZINC001004075025    0.0700
     50 H50        -2.6383   -0.9309   48.4705 H       1  ZINC001004075025    0.2000
     51 H51        -5.6588    2.0255   52.8538 H       1  ZINC001004075025    0.0900
     52 H52        -6.0165    0.3030   52.4051 H       1  ZINC001004075025    0.0800
@<TRIPOS>BOND
     1     1     2    1
     2     1    28    1
     3     1    29    1
     4     1    30    1
     5     2     3    1
     6     2    31    1
     7     2    32    1
     8     3     4    1
     9     3    27    1
    10     3     5    1
    11     5     6    1
    12     5    33    1
    13     5    34    1
    14     6     7    1
    15     6    35    1
    16     6    36    1
    17     7     8    1
    18     7     9    1
    19     7    27    1
    20     9    10    2
    21     9    11   am
    22    11    26    1
    23    11    12    1
    24    12    13    1
    25    12    37    1
    26    12    38    1
    27    13    14    1
    28    13    26    1
    29    13    39    1
    30    14    15    1
    31    14    40    1
    32    14    41    1
    33    15    16   am
    34    15    42    1
    35    16    17    2
    36    16    18    1
    37    18    25    1
    38    18    19    2
    39    19    20    1
    40    19    23    1
    41    20    21    1
    42    20    22    1
    43    20    43    1
    44    21    44    1
    45    21    45    1
    46    21    46    1
    47    22    47    1
    48    22    48    1
    49    22    49    1
    50    23    24    1
    51    24    25    2
    52    25    50    1
    53    26    51    1
    54    26    52    1
@<TRIPOS>SUBSTRUCTURE
     1 ZINC001004075025        1 TEMP              0 ****  ****    0 ROOT


##########                                Name:    ZINC000770814339
##########                DOCK_Rotatable_Bonds:                  13
##########                         Heavy_Atoms:                  28
##########                    Molecular_Weight:             409.423
##########                DOCK_Rotatable_Bonds:                  13
##########                       Formal_Charge:          -0.0100008
##########                     HBond_Acceptors:                  12
##########                        HBond_Donors:                   4
##########                         Heavy_Atoms:                  28
##########                          Grid_Score:          -34.901627
##########                     Grid_vdw_energy:          -33.792210
##########                      Grid_es_energy:           -1.109417
##########           Internal_energy_repulsive:           10.354699

@<TRIPOS>MOLECULE
ZINC000770814339
 47 48 1 0 0
SMALL
USER_CHARGES


@<TRIPOS>ATOM
      1 C1         -7.6121    3.6844   50.4751 C.3     1  ZINC000770814339   -0.1500
      2 C2         -7.5175    2.3148   49.7995 C.3     1  ZINC000770814339    0.0600
      3 O3         -7.8507    1.2776   50.7594 O.3     1  ZINC000770814339   -0.3500
      4 C4         -6.9301    0.9936   51.6940 C.2     1  ZINC000770814339    0.4700
      5 O5         -5.8197    1.4623   51.6102 O.2     1  ZINC000770814339   -0.4800
      6 C6         -7.2814    0.0900   52.8477 C.3     1  ZINC000770814339    0.0700
      7 O7         -8.7024   -0.0245   52.9475 O.3     1  ZINC000770814339   -0.1800
      8 N8         -9.1455   -0.6981   54.1116 N.2     1  ZINC000770814339   -0.2800
      9 C9        -10.4207   -0.8011   54.3590 C.2     1  ZINC000770814339    0.1800
     10 C10       -10.8846   -1.5045   55.5783 C.2     1  ZINC000770814339    0.5900
     11 O11       -12.0252   -1.3549   55.9692 O.2     1  ZINC000770814339   -0.5100
     12 N12       -10.0410   -2.3101   56.2535 N.am    1  ZINC000770814339   -0.7000
     13 C13       -10.4999   -3.0067   57.4577 C.3     1  ZINC000770814339    0.1500
     14 C14       -10.1575   -2.1858   58.6743 C.ar    1  ZINC000770814339   -0.0600
     15 C15       -11.1057   -1.3494   59.2330 C.ar    1  ZINC000770814339   -0.1200
     16 C16       -10.7916   -0.5965   60.3490 C.ar    1  ZINC000770814339   -0.0200
     17 C17        -9.5294   -0.6804   60.9065 C.ar    1  ZINC000770814339   -0.6700
     18 S18        -9.1289    0.2798   62.3286 S.o2    1  ZINC000770814339    2.7000
     19 N19        -8.1963    1.5488   61.8165 N.am    1  ZINC000770814339   -1.2500
     20 O20       -10.3500    0.8403   62.7912 O.2     1  ZINC000770814339   -0.9600
     21 O21        -8.2906   -0.5331   63.1384 O.2     1  ZINC000770814339   -0.9600
     22 C22        -8.5817   -1.5178   60.3486 C.ar    1  ZINC000770814339   -0.0200
     23 C23        -8.8971   -2.2737   59.2349 C.ar    1  ZINC000770814339   -0.1200
     24 C24       -11.4036   -0.2171   53.4247 C.2     1  ZINC000770814339    0.0600
     25 C25       -12.4160    0.6617   53.7450 C.2     1  ZINC000770814339   -0.2000
     26 C26       -13.1051    0.9598   52.5704 C.2     1  ZINC000770814339    0.0400
     27 N27       -12.5520    0.3042   51.5815 N.2     1  ZINC000770814339   -0.2600
     28 N28       -11.4770   -0.4414   52.0808 N.pl3   1  ZINC000770814339   -0.4400
     29 H29        -7.3619    4.4630   49.7545 H       1  ZINC000770814339    0.0800
     30 H30        -8.6271    3.8400   50.8404 H       1  ZINC000770814339    0.0700
     31 H31        -6.9145    3.7259   51.3116 H       1  ZINC000770814339    0.0700
     32 H32        -8.2150    2.2734   48.9630 H       1  ZINC000770814339    0.0700
     33 H33        -6.5023    2.1593   49.4342 H       1  ZINC000770814339    0.0700
     34 H34        -6.8482   -0.8963   52.6816 H       1  ZINC000770814339    0.1100
     35 H35        -6.8850    0.5100   53.7720 H       1  ZINC000770814339    0.1100
     36 H36        -9.1299   -2.4286   55.9421 H       1  ZINC000770814339    0.4100
     37 H37       -11.5795   -3.1477   57.4067 H       1  ZINC000770814339    0.0900
     38 H38       -10.0094   -3.9778   57.5249 H       1  ZINC000770814339    0.0900
     39 H39       -12.0918   -1.2838   58.7974 H       1  ZINC000770814339    0.1400
     40 H40       -11.5322    0.0576   60.7850 H       1  ZINC000770814339    0.1500
     41 H41        -8.5492    2.1803   61.1703 H       1  ZINC000770814339    0.4200
     42 H42        -7.2971    1.6606   62.1627 H       1  ZINC000770814339    0.4200
     43 H43        -7.5957   -1.5837   60.7844 H       1  ZINC000770814339    0.1500
     44 H44        -8.1566   -2.9280   58.7991 H       1  ZINC000770814339    0.1400
     45 H45       -12.6360    1.0493   54.7288 H       1  ZINC000770814339    0.1700
     46 H46       -13.9547    1.6216   52.4898 H       1  ZINC000770814339    0.1900
     47 H47       -10.8926   -1.0185   51.5647 H       1  ZINC000770814339    0.4500
@<TRIPOS>BOND
     1     1     2    1
     2     1    29    1
     3     1    30    1
     4     1    31    1
     5     2     3    1
     6     2    32    1
     7     2    33    1
     8     3     4    1
     9     4     5    2
    10     4     6    1
    11     6     7    1
    12     6    34    1
    13     6    35    1
    14     7     8    1
    15     8     9    2
    16     9    10    1
    17     9    24    1
    18    10    11    2
    19    10    12   am
    20    12    13    1
    21    12    36    1
    22    13    14    1
    23    13    37    1
    24    13    38    1
    25    14    23   ar
    26    14    15   ar
    27    15    16   ar
    28    15    39    1
    29    16    17   ar
    30    16    40    1
    31    17    18    1
    32    17    22   ar
    33    18    19   am
    34    18    20    2
    35    18    21    2
    36    19    41    1
    37    19    42    1
    38    22    23   ar
    39    22    43    1
    40    23    44    1
    41    24    28    1
    42    24    25    2
    43    25    26    1
    44    25    45    1
    45    26    27    2
    46    26    46    1
    47    27    28    1
    48    28    47    1
@<TRIPOS>SUBSTRUCTURE
     1 ZINC000770814339        1 TEMP              0 ****  ****    0 ROOT


##########                                Name:    ZINC000435005159
##########                DOCK_Rotatable_Bonds:                  12
##########                         Heavy_Atoms:                  30
##########                    Molecular_Weight:             401.508
##########                DOCK_Rotatable_Bonds:                  12
##########                       Formal_Charge:          -0.0399985
##########                     HBond_Acceptors:                   5
##########                        HBond_Donors:                   2
##########                         Heavy_Atoms:                  30
##########                          Grid_Score:          -34.849907
##########                     Grid_vdw_energy:          -33.461933
##########                      Grid_es_energy:           -1.387973
##########           Internal_energy_repulsive:           11.693993

@<TRIPOS>MOLECULE
ZINC000435005159
 57 59 1 0 0
SMALL
USER_CHARGES


@<TRIPOS>ATOM
      1 O1         -7.2618    0.6160   58.6457 O.2     1  ZINC000435005159   -0.5300
      2 C2         -8.0773    1.4087   59.0671 C.2     1  ZINC000435005159    0.5200
      3 C3         -8.2816    2.7255   58.3633 C.3     1  ZINC000435005159   -0.1400
      4 C4         -8.4223    2.4834   56.8591 C.3     1  ZINC000435005159   -0.1200
      5 C5         -7.0332    2.4124   56.2219 C.3     1  ZINC000435005159    0.1200
      6 N6         -7.1434    2.6586   54.7819 N.am    1  ZINC000435005159   -0.7200
      7 C7         -7.2296    1.6214   53.9256 C.2     1  ZINC000435005159    0.5600
      8 O8         -7.2146    0.4816   54.3479 O.2     1  ZINC000435005159   -0.5300
      9 C9         -7.3426    1.8698   52.4726 C.ar    1  ZINC000435005159   -0.1900
     10 C10        -7.3916    0.8013   51.5695 C.ar    1  ZINC000435005159   -0.0200
     11 C11        -7.4980    1.0877   50.2197 C.ar    1  ZINC000435005159   -0.1800
     12 C12        -7.5520    2.4076   49.8099 C.ar    1  ZINC000435005159    0.1200
     13 N13        -7.5033    3.3948   50.6841 N.ar    1  ZINC000435005159   -0.4900
     14 C14        -7.4080    3.1734   51.9785 C.ar    1  ZINC000435005159    0.1400
     15 N15        -8.8048    1.1096   60.1615 N.am    1  ZINC000435005159   -0.7300
     16 C16        -8.6062   -0.1704   60.8457 C.3     1  ZINC000435005159    0.1900
     17 H17        -7.5424   -0.4065   60.8735 H       1  ZINC000435005159    0.1000
     18 C18        -9.1445   -0.0739   62.2747 C.3     1  ZINC000435005159   -0.1200
     19 C19        -8.1774    0.7475   63.1296 C.3     1  ZINC000435005159   -0.0800
     20 C20        -8.8123    1.0415   64.4643 C.ar    1  ZINC000435005159   -0.0800
     21 C21        -8.2938    0.4783   65.6154 C.ar    1  ZINC000435005159   -0.1200
     22 C22        -8.8761    0.7481   66.8398 C.ar    1  ZINC000435005159   -0.1200
     23 C23        -9.9766    1.5814   66.9132 C.ar    1  ZINC000435005159   -0.1200
     24 C24       -10.4944    2.1453   65.7622 C.ar    1  ZINC000435005159   -0.1200
     25 C25        -9.9095    1.8790   64.5383 C.ar    1  ZINC000435005159   -0.1200
     26 C26        -9.3424   -1.2562   60.1039 C.ar    1  ZINC000435005159   -0.1000
     27 C27       -10.6644   -1.0729   59.7438 C.ar    1  ZINC000435005159   -0.1100
     28 C28       -11.3398   -2.0687   59.0633 C.ar    1  ZINC000435005159   -0.1200
     29 C29       -10.6930   -3.2477   58.7425 C.ar    1  ZINC000435005159   -0.1200
     30 C30        -9.3707   -3.4304   59.1019 C.ar    1  ZINC000435005159   -0.1200
     31 C31        -8.6941   -2.4329   59.7785 C.ar    1  ZINC000435005159   -0.1000
     32 H32        -9.1861    3.2027   58.7406 H       1  ZINC000435005159    0.1000
     33 H33        -7.4248    3.3733   58.5484 H       1  ZINC000435005159    0.1000
     34 H34        -8.9483    1.5437   56.6900 H       1  ZINC000435005159    0.0800
     35 H35        -8.9865    3.3012   56.4107 H       1  ZINC000435005159    0.0800
     36 H36        -6.3882    3.1674   56.6712 H       1  ZINC000435005159    0.0700
     37 H37        -6.6066    1.4235   56.3896 H       1  ZINC000435005159    0.0700
     38 H38        -7.1543    3.5680   54.4447 H       1  ZINC000435005159    0.4000
     39 H39        -7.3471   -0.2203   51.9172 H       1  ZINC000435005159    0.1500
     40 H40        -7.5380    0.2890   49.4939 H       1  ZINC000435005159    0.1500
     41 H41        -7.6351    2.6339   48.7571 H       1  ZINC000435005159    0.1600
     42 H42        -7.3711    4.0078   52.6631 H       1  ZINC000435005159    0.1600
     43 H43        -9.4598    1.7420   60.4962 H       1  ZINC000435005159    0.4000
     44 H44       -10.1208    0.4108   62.2632 H       1  ZINC000435005159    0.0700
     45 H45        -9.2408   -1.0749   62.6952 H       1  ZINC000435005159    0.0800
     46 H46        -7.2574    0.1832   63.2813 H       1  ZINC000435005159    0.0700
     47 H47        -7.9494    1.6846   62.6215 H       1  ZINC000435005159    0.0700
     48 H48        -7.4341   -0.1729   65.5580 H       1  ZINC000435005159    0.1200
     49 H49        -8.4715    0.3074   67.7389 H       1  ZINC000435005159    0.1200
     50 H50       -10.4319    1.7916   67.8697 H       1  ZINC000435005159    0.1200
     51 H51       -11.3544    2.7962   65.8194 H       1  ZINC000435005159    0.1200
     52 H52       -10.3141    2.3197   63.6391 H       1  ZINC000435005159    0.1200
     53 H53       -11.1697   -0.1519   59.9944 H       1  ZINC000435005159    0.1200
     54 H54       -12.3728   -1.9259   58.7827 H       1  ZINC000435005159    0.1200
     55 H55       -11.2208   -4.0259   58.2115 H       1  ZINC000435005159    0.1200
     56 H56        -8.8655   -4.3516   58.8515 H       1  ZINC000435005159    0.1200
     57 H57        -7.6611   -2.5757   60.0592 H       1  ZINC000435005159    0.1200
@<TRIPOS>BOND
     1     1     2    2
     2     2     3    1
     3     2    15   am
     4     3     4    1
     5     3    32    1
     6     3    33    1
     7     4     5    1
     8     4    34    1
     9     4    35    1
    10     5     6    1
    11     5    36    1
    12     5    37    1
    13     6     7   am
    14     6    38    1
    15     7     8    2
    16     7     9    1
    17     9    14   ar
    18     9    10   ar
    19    10    11   ar
    20    10    39    1
    21    11    12   ar
    22    11    40    1
    23    12    13   ar
    24    12    41    1
    25    13    14   ar
    26    14    42    1
    27    15    16    1
    28    15    43    1
    29    16    17    1
    30    16    18    1
    31    16    26    1
    32    18    19    1
    33    18    44    1
    34    18    45    1
    35    19    20    1
    36    19    46    1
    37    19    47    1
    38    20    25   ar
    39    20    21   ar
    40    21    22   ar
    41    21    48    1
    42    22    23   ar
    43    22    49    1
    44    23    24   ar
    45    23    50    1
    46    24    25   ar
    47    24    51    1
    48    25    52    1
    49    26    31   ar
    50    26    27   ar
    51    27    28   ar
    52    27    53    1
    53    28    29   ar
    54    28    54    1
    55    29    30   ar
    56    29    55    1
    57    30    31   ar
    58    30    56    1
    59    31    57    1
@<TRIPOS>SUBSTRUCTURE
     1 ZINC000435005159        1 TEMP              0 ****  ****    0 ROOT


##########                                Name:    ZINC000058043838
##########                DOCK_Rotatable_Bonds:                   8
##########                         Heavy_Atoms:                  29
##########                    Molecular_Weight:             412.469
##########                DOCK_Rotatable_Bonds:                   8
##########                       Formal_Charge:           0.0200001
##########                     HBond_Acceptors:                   9
##########                        HBond_Donors:                   0
##########                         Heavy_Atoms:                  29
##########                          Grid_Score:          -34.816944
##########                     Grid_vdw_energy:          -33.984650
##########                      Grid_es_energy:           -0.832296
##########           Internal_energy_repulsive:            9.523256

@<TRIPOS>MOLECULE
ZINC000058043838
 49 51 1 0 0
SMALL
USER_CHARGES


@<TRIPOS>ATOM
      1 C1        -14.7127   -4.6637   57.0802 C.3     1  ZINC000058043838    0.0300
      2 O2        -13.2945   -4.5441   56.9509 O.3     1  ZINC000058043838   -0.3800
      3 C3        -12.8145   -3.2007   57.0341 C.3     1  ZINC000058043838    0.0300
      4 C4        -11.2964   -3.1889   56.8445 C.3     1  ZINC000058043838    0.1000
      5 N5        -10.8180   -1.8044   56.8208 N.am    1  ZINC000058043838   -0.5200
      6 C6        -10.4132   -1.2117   57.9616 C.2     1  ZINC000058043838    0.5100
      7 O7        -10.0157   -0.0661   57.9418 O.2     1  ZINC000058043838   -0.4500
      8 C8        -10.4542   -1.9727   59.2618 C.3     1  ZINC000058043838   -0.0900
      9 C9        -10.0682   -1.0551   60.3931 C.ar    1  ZINC000058043838   -0.1400
     10 C10        -8.7607   -1.0189   60.8525 C.ar    1  ZINC000058043838   -0.0500
     11 C11        -8.4512   -0.1590   61.8955 C.ar    1  ZINC000058043838   -0.1700
     12 C12        -9.4492    0.6277   62.4384 C.ar    1  ZINC000058043838    0.1300
     13 C13        -9.1242    1.5662   63.5718 C.3     1  ZINC000058043838   -0.1100
     14 N14       -10.6828    0.5670   61.9758 N.ar    1  ZINC000058043838   -0.4800
     15 C15       -11.0121   -0.2349   60.9823 C.ar    1  ZINC000058043838    0.1200
     16 C16       -10.7817   -1.1022   55.6223 C.2     1  ZINC000058043838    0.3100
     17 N17        -9.7052   -0.7020   55.0207 N.2     1  ZINC000058043838   -0.4700
     18 C18        -9.8620   -0.0437   53.8807 C.2     1  ZINC000058043838    0.1100
     19 C19        -8.7120    0.4666   53.0954 C.ar    1  ZINC000058043838    0.0400
     20 C20        -7.7916    1.3321   53.6843 C.ar    1  ZINC000058043838   -0.0800
     21 C21        -6.7232    1.8034   52.9488 C.ar    1  ZINC000058043838   -0.0500
     22 C22        -6.5647    1.4185   51.6296 C.ar    1  ZINC000058043838   -0.0400
     23 N23        -5.4166    1.9274   50.8459 N.pl3   1  ZINC000058043838    0.0300
     24 O24        -4.6137    2.6835   51.3626 O.2     1  ZINC000058043838   -0.1600
     25 O25        -5.2749    1.5899   49.6841 O.2     1  ZINC000058043838   -0.1600
     26 C26        -7.4747    0.5594   51.0401 C.ar    1  ZINC000058043838   -0.0500
     27 C27        -8.5443    0.0780   51.7673 C.ar    1  ZINC000058043838   -0.1100
     28 C28       -11.1360    0.1292   53.4854 C.2     1  ZINC000058043838   -0.2600
     29 S29       -12.1904   -0.6238   54.6799 S.3     1  ZINC000058043838    0.1500
     30 H30       -15.0237   -4.2704   58.0480 H       1  ZINC000058043838    0.0500
     31 H31       -15.1990   -4.0985   56.2851 H       1  ZINC000058043838    0.0400
     32 H32       -14.9971   -5.7133   57.0061 H       1  ZINC000058043838    0.0900
     33 H33       -13.2827   -2.5987   56.2554 H       1  ZINC000058043838    0.0600
     34 H34       -13.0618   -2.7865   58.0116 H       1  ZINC000058043838    0.0800
     35 H35       -10.8232   -3.7227   57.6685 H       1  ZINC000058043838    0.1200
     36 H36       -11.0441   -3.6766   55.9029 H       1  ZINC000058043838    0.1000
     37 H37       -11.4624   -2.3517   59.4292 H       1  ZINC000058043838    0.1100
     38 H38        -9.7550   -2.8076   59.2163 H       1  ZINC000058043838    0.1100
     39 H39        -8.0014   -1.6457   60.4090 H       1  ZINC000058043838    0.1300
     40 H40        -7.4430   -0.1049   62.2789 H       1  ZINC000058043838    0.1400
     41 H41        -8.8289    2.5348   63.1682 H       1  ZINC000058043838    0.0800
     42 H42       -10.0027    1.6891   64.2051 H       1  ZINC000058043838    0.0800
     43 H43        -8.3058    1.1536   64.1617 H       1  ZINC000058043838    0.0800
     44 H44       -12.0329   -0.2574   60.6303 H       1  ZINC000058043838    0.1500
     45 H45        -7.9145    1.6335   54.7140 H       1  ZINC000058043838    0.1600
     46 H46        -6.0097    2.4742   53.4039 H       1  ZINC000058043838    0.1600
     47 H47        -7.3462    0.2622   50.0098 H       1  ZINC000058043838    0.1600
     48 H48        -9.2540   -0.5929   51.3062 H       1  ZINC000058043838    0.1500
     49 H49       -11.4571    0.6384   52.5888 H       1  ZINC000058043838    0.1800
@<TRIPOS>BOND
     1     1     2    1
     2     1    30    1
     3     1    31    1
     4     1    32    1
     5     2     3    1
     6     3     4    1
     7     3    33    1
     8     3    34    1
     9     4     5    1
    10     4    35    1
    11     4    36    1
    12     5     6   am
    13     5    16    1
    14     6     7    2
    15     6     8    1
    16     8     9    1
    17     8    37    1
    18     8    38    1
    19     9    15   ar
    20     9    10   ar
    21    10    11   ar
    22    10    39    1
    23    11    12   ar
    24    11    40    1
    25    12    13    1
    26    12    14   ar
    27    13    41    1
    28    13    42    1
    29    13    43    1
    30    14    15   ar
    31    15    44    1
    32    16    29    1
    33    16    17    2
    34    17    18    1
    35    18    19    1
    36    18    28    2
    37    19    27   ar
    38    19    20   ar
    39    20    21   ar
    40    20    45    1
    41    21    22   ar
    42    21    46    1
    43    22    23    1
    44    22    26   ar
    45    23    24    2
    46    23    25    2
    47    26    27   ar
    48    26    47    1
    49    27    48    1
    50    28    29    1
    51    28    49    1
@<TRIPOS>SUBSTRUCTURE
     1 ZINC000058043838        1 TEMP              0 ****  ****    0 ROOT


##########                                Name:    ZINC001105793963
##########                DOCK_Rotatable_Bonds:                   9
##########                         Heavy_Atoms:                  24
##########                    Molecular_Weight:             337.422
##########                DOCK_Rotatable_Bonds:                   9
##########                       Formal_Charge:          -0.0100003
##########                     HBond_Acceptors:                   8
##########                        HBond_Donors:                   2
##########                         Heavy_Atoms:                  24
##########                          Grid_Score:          -34.809597
##########                     Grid_vdw_energy:          -33.529190
##########                      Grid_es_energy:           -1.280406
##########           Internal_energy_repulsive:            7.112952

@<TRIPOS>MOLECULE
ZINC001105793963
 51 52 1 0 0
SMALL
USER_CHARGES


@<TRIPOS>ATOM
      1 C1         -3.3745    1.3535   49.2664 C.3     1  ZINC001105793963   -0.1500
      2 C2         -4.1971    2.2961   50.1473 C.3     1  ZINC001105793963   -0.0300
      3 C3         -5.5991    1.7605   50.2838 C.2     1  ZINC001105793963    0.1800
      4 N4         -6.0177    0.8839   51.1646 N.2     1  ZINC001105793963   -0.4800
      5 C5         -7.3268    0.7107   50.9089 C.2     1  ZINC001105793963    0.1700
      6 C6         -8.2673   -0.2033   51.6513 C.3     1  ZINC001105793963    0.1500
      7 N7         -8.8635    0.5212   52.7817 N.3     1  ZINC001105793963   -0.6900
      8 C8         -9.9332   -0.2678   53.4072 C.3     1  ZINC001105793963    0.0700
      9 C9        -10.0796    0.1436   54.8735 C.3     1  ZINC001105793963   -0.1000
     10 H10       -10.3117    1.2061   54.9468 H       1  ZINC001105793963    0.1000
     11 C11        -8.7865   -0.1784   55.6531 C.3     1  ZINC001105793963    0.1100
     12 N12        -9.2549   -0.6286   56.9845 N.am    1  ZINC001105793963   -0.6200
     13 C13        -8.7147   -0.3522   58.1879 C.2     1  ZINC001105793963    0.5300
     14 O14        -7.7251    0.3449   58.2627 O.2     1  ZINC001105793963   -0.5300
     15 C15        -9.3405   -0.9093   59.4405 C.3     1  ZINC001105793963    0.1300
     16 H16       -10.4247   -0.8175   59.3769 H       1  ZINC001105793963    0.1100
     17 C17        -8.9612   -2.3842   59.5876 C.3     1  ZINC001105793963   -0.1600
     18 N18        -8.8546   -0.1619   60.6031 N.am    1  ZINC001105793963   -0.7200
     19 C19        -9.7052    0.1701   61.5944 C.2     1  ZINC001105793963    0.5200
     20 C20        -9.2058    0.9405   62.7894 C.3     1  ZINC001105793963   -0.1700
     21 O21       -10.8726   -0.1510   61.5246 O.2     1  ZINC001105793963   -0.5500
     22 C22       -10.4517   -1.4517   56.6929 C.3     1  ZINC001105793963    0.1000
     23 C23       -11.1795   -0.6939   55.5584 C.3     1  ZINC001105793963   -0.1000
     24 H24       -11.6147   -1.3991   54.8502 H       1  ZINC001105793963    0.0900
     25 C25       -12.2652    0.2155   56.1374 C.3     1  ZINC001105793963   -0.1500
     26 N26        -7.6317    1.4765   49.9043 N.2     1  ZINC001105793963   -0.3700
     27 O27        -6.6544    2.0924   49.5342 O.3     1  ZINC001105793963    0.0800
     28 H28        -3.3426    0.3644   49.7235 H       1  ZINC001105793963    0.0600
     29 H29        -3.8344    1.2836   48.2807 H       1  ZINC001105793963    0.0600
     30 H30        -2.3605    1.7409   49.1677 H       1  ZINC001105793963    0.0800
     31 H31        -3.7372    2.3660   51.1331 H       1  ZINC001105793963    0.1100
     32 H32        -4.2289    3.2852   49.6903 H       1  ZINC001105793963    0.1000
     33 H33        -9.0559   -0.5381   50.9776 H       1  ZINC001105793963    0.1000
     34 H34        -7.7163   -1.0671   52.0234 H       1  ZINC001105793963    0.0700
     35 H35        -8.1603    0.7775   53.4583 H       1  ZINC001105793963    0.3500
     36 H36       -10.8719   -0.0870   52.8836 H       1  ZINC001105793963    0.0800
     37 H37        -9.6838   -1.3275   53.3504 H       1  ZINC001105793963    0.0400
     38 H38        -8.2314   -0.9741   55.1563 H       1  ZINC001105793963    0.0700
     39 H39        -8.1685    0.7143   55.7495 H       1  ZINC001105793963    0.0900
     40 H40        -9.4137   -2.7872   60.4937 H       1  ZINC001105793963    0.0800
     41 H41        -9.3226   -2.9403   58.7225 H       1  ZINC001105793963    0.0800
     42 H42        -7.8769   -2.4760   59.6513 H       1  ZINC001105793963    0.0600
     43 H43        -7.9206    0.0939   60.6595 H       1  ZINC001105793963    0.4100
     44 H44        -8.1398    1.1372   62.6754 H       1  ZINC001105793963    0.0800
     45 H45        -9.7437    1.8856   62.8631 H       1  ZINC001105793963    0.1000
     46 H46        -9.3726    0.3559   63.6941 H       1  ZINC001105793963    0.1000
     47 H47       -10.1567   -2.4464   56.3586 H       1  ZINC001105793963    0.0800
     48 H48       -11.0900   -1.5196   57.5738 H       1  ZINC001105793963    0.0900
     49 H49       -11.8137    0.9226   56.8333 H       1  ZINC001105793963    0.0600
     50 H50       -12.7511    0.7614   55.3287 H       1  ZINC001105793963    0.0600
     51 H51       -13.0040   -0.3897   56.6626 H       1  ZINC001105793963    0.0600
@<TRIPOS>BOND
     1     1     2    1
     2     1    28    1
     3     1    29    1
     4     1    30    1
     5     2     3    1
     6     2    31    1
     7     2    32    1
     8     3    27    1
     9     3     4    2
    10     4     5    1
    11     5     6    1
    12     5    26    2
    13     6     7    1
    14     6    33    1
    15     6    34    1
    16     7     8    1
    17     7    35    1
    18     8     9    1
    19     8    36    1
    20     8    37    1
    21     9    10    1
    22     9    23    1
    23     9    11    1
    24    11    12    1
    25    11    38    1
    26    11    39    1
    27    12    13   am
    28    12    22    1
    29    13    14    2
    30    13    15    1
    31    15    16    1
    32    15    17    1
    33    15    18    1
    34    17    40    1
    35    17    41    1
    36    17    42    1
    37    18    19   am
    38    18    43    1
    39    19    20    1
    40    19    21    2
    41    20    44    1
    42    20    45    1
    43    20    46    1
    44    22    23    1
    45    22    47    1
    46    22    48    1
    47    23    24    1
    48    23    25    1
    49    25    49    1
    50    25    50    1
    51    25    51    1
    52    26    27    1
@<TRIPOS>SUBSTRUCTURE
     1 ZINC001105793963        1 TEMP              0 ****  ****    0 ROOT


##########                                Name:    ZINC000624498741
##########                DOCK_Rotatable_Bonds:                   7
##########                         Heavy_Atoms:                  27
##########                    Molecular_Weight:             379.339
##########                DOCK_Rotatable_Bonds:                   7
##########                       Formal_Charge:           0.0300003
##########                     HBond_Acceptors:                   9
##########                        HBond_Donors:                   0
##########                         Heavy_Atoms:                  27
##########                          Grid_Score:          -34.776756
##########                     Grid_vdw_energy:          -33.857601
##########                      Grid_es_energy:           -0.919155
##########           Internal_energy_repulsive:            8.093971

@<TRIPOS>MOLECULE
ZINC000624498741
 43 45 1 0 0
SMALL
USER_CHARGES


@<TRIPOS>ATOM
      1 C1          0.6379    3.2641   51.5036 C.3     1  ZINC000624498741   -0.1100
      2 C2         -0.4139    2.5448   50.6990 C.ar    1  ZINC000624498741   -0.0900
      3 C3         -1.7372    2.9088   50.8151 C.ar    1  ZINC000624498741   -0.0400
      4 C4         -2.7114    2.2415   50.0685 C.ar    1  ZINC000624498741   -0.0500
      5 C5         -4.1311    2.6289   50.1897 C.2     1  ZINC000624498741    0.2300
      6 N6         -5.1801    1.9034   49.8417 N.2     1  ZINC000624498741   -0.4700
      7 C7         -6.2514    2.6573   50.1337 C.2     1  ZINC000624498741    0.1800
      8 C8         -7.6933    2.2740   49.9220 C.3     1  ZINC000624498741   -0.0300
      9 C9         -8.3135    1.8639   51.2591 C.3     1  ZINC000624498741   -0.1300
     10 C10        -7.8578    0.4486   51.6201 C.3     1  ZINC000624498741    0.0900
     11 N11        -8.5061    0.0293   52.8652 N.am    1  ZINC000624498741   -0.5000
     12 C12        -7.9091    0.2950   54.0552 C.2     1  ZINC000624498741    0.1300
     13 C13        -8.4886   -0.0827   55.2186 C.2     1  ZINC000624498741   -0.2300
     14 C14        -9.7184   -0.7555   55.2018 C.2     1  ZINC000624498741   -0.0200
     15 C15       -10.3169   -1.0211   54.0053 C.2     1  ZINC000624498741   -0.2400
     16 C16        -9.6901   -0.6103   52.8165 C.2     1  ZINC000624498741    0.5100
     17 O17       -10.2146   -0.8415   51.7388 O.2     1  ZINC000624498741   -0.5500
     18 N18        -5.8202    3.7779   50.6330 N.2     1  ZINC000624498741   -0.3700
     19 O19        -4.6083    3.7837   50.6800 O.3     1  ZINC000624498741    0.0900
     20 C20        -2.3389    1.2074   49.2067 C.ar    1  ZINC000624498741   -0.0200
     21 C21        -1.0130    0.8494   49.0962 C.ar    1  ZINC000624498741   -0.1900
     22 C22        -0.0467    1.5189   49.8366 C.ar    1  ZINC000624498741    0.1300
     23 O23         1.2588    1.1630   49.7249 O.3     1  ZINC000624498741   -0.3000
     24 C24         1.9575    1.6153   48.5633 C.3     1  ZINC000624498741    0.6000
     25 F25         1.5822    0.8392   47.4616 F       1  ZINC000624498741   -0.1600
     26 F26         1.6388    2.9556   48.3197 F       1  ZINC000624498741   -0.1300
     27 F27         3.3356    1.4941   48.7713 F       1  ZINC000624498741   -0.1600
     28 H28         1.0076    4.1187   50.9369 H       1  ZINC000624498741    0.0800
     29 H29         0.2040    3.6106   52.4416 H       1  ZINC000624498741    0.0800
     30 H30         1.4628    2.5835   51.7143 H       1  ZINC000624498741    0.0800
     31 H31        -2.0214    3.7086   51.4829 H       1  ZINC000624498741    0.1500
     32 H32        -8.2392    3.1246   49.5140 H       1  ZINC000624498741    0.1000
     33 H33        -7.7485    1.4383   49.2243 H       1  ZINC000624498741    0.1000
     34 H34        -7.9933    2.5579   52.0364 H       1  ZINC000624498741    0.0800
     35 H35        -9.4002    1.8858   51.1776 H       1  ZINC000624498741    0.0800
     36 H36        -8.1325   -0.2371   50.8187 H       1  ZINC000624498741    0.1100
     37 H37        -6.7758    0.4380   51.7524 H       1  ZINC000624498741    0.1000
     38 H38        -6.9617    0.8130   54.0737 H       1  ZINC000624498741    0.1600
     39 H39        -8.0036    0.1336   56.1591 H       1  ZINC000624498741    0.1500
     40 H40       -10.1867   -1.0603   56.1261 H       1  ZINC000624498741    0.1400
     41 H41       -11.2644   -1.5383   53.9720 H       1  ZINC000624498741    0.1500
     42 H42        -3.0890    0.6889   48.6282 H       1  ZINC000624498741    0.1500
     43 H43        -0.7241    0.0496   48.4304 H       1  ZINC000624498741    0.1500
@<TRIPOS>BOND
     1     1     2    1
     2     1    28    1
     3     1    29    1
     4     1    30    1
     5     2    22   ar
     6     2     3   ar
     7     3     4   ar
     8     3    31    1
     9     4     5    1
    10     4    20   ar
    11     5    19    1
    12     5     6    2
    13     6     7    1
    14     7     8    1
    15     7    18    2
    16     8     9    1
    17     8    32    1
    18     8    33    1
    19     9    10    1
    20     9    34    1
    21     9    35    1
    22    10    11    1
    23    10    36    1
    24    10    37    1
    25    11    16   am
    26    11    12    1
    27    12    13    2
    28    12    38    1
    29    13    14    1
    30    13    39    1
    31    14    15    2
    32    14    40    1
    33    15    16    1
    34    15    41    1
    35    16    17    2
    36    18    19    1
    37    20    21   ar
    38    20    42    1
    39    21    22   ar
    40    21    43    1
    41    22    23    1
    42    23    24    1
    43    24    25    1
    44    24    26    1
    45    24    27    1
@<TRIPOS>SUBSTRUCTURE
     1 ZINC000624498741        1 TEMP              0 ****  ****    0 ROOT


##########                                Name:    ZINC000129637895
##########                DOCK_Rotatable_Bonds:                   7
##########                         Heavy_Atoms:                  26
##########                    Molecular_Weight:             374.464
##########                DOCK_Rotatable_Bonds:                   7
##########                       Formal_Charge:        -5.51343e-07
##########                     HBond_Acceptors:                   8
##########                        HBond_Donors:                   1
##########                         Heavy_Atoms:                  26
##########                          Grid_Score:          -34.695477
##########                     Grid_vdw_energy:          -34.710438
##########                      Grid_es_energy:            0.014962
##########           Internal_energy_repulsive:           28.718246

@<TRIPOS>MOLECULE
ZINC000129637895
 48 50 1 0 0
SMALL
USER_CHARGES


@<TRIPOS>ATOM
      1 C1         -8.5662    0.3401   58.1974 C.3     1  ZINC000129637895   -0.1500
      2 C2         -9.2131    0.7815   56.8830 C.3     1  ZINC000129637895   -0.0500
      3 C3         -9.6510   -0.4331   56.1060 C.2     1  ZINC000129637895    0.0300
      4 C4         -9.6947   -0.4629   54.7619 C.2     1  ZINC000129637895   -0.0200
      5 N5         -9.3548    0.5838   53.9059 N.am    1  ZINC000129637895   -0.5900
      6 C6         -9.6454    0.5016   52.5924 C.2     1  ZINC000129637895    0.5000
      7 O7        -10.2044   -0.4834   52.1548 O.2     1  ZINC000129637895   -0.4800
      8 C8         -9.2799    1.6214   51.6758 C.2     1  ZINC000129637895    0.5200
      9 O9         -9.9729    2.6167   51.6271 O.2     1  ZINC000129637895   -0.5100
     10 N10        -8.1803    1.5275   50.9022 N.am    1  ZINC000129637895   -0.5800
     11 C11        -7.7987    2.6218   49.9966 C.3     1  ZINC000129637895    0.0800
     12 C12        -6.3279    2.9711   50.2477 C.3     1  ZINC000129637895    0.0400
     13 N13        -5.5123    1.7548   50.1307 N.3     1  ZINC000129637895   -0.4900
     14 C14        -4.1502    2.0580   50.1909 C.ar    1  ZINC000129637895    0.1500
     15 C15        -3.6921    3.0297   51.0720 C.ar    1  ZINC000129637895   -0.2100
     16 C16        -2.3447    3.3290   51.1317 C.ar    1  ZINC000129637895   -0.0500
     17 C17        -1.4496    2.6638   50.3158 C.ar    1  ZINC000129637895   -0.2300
     18 C18        -1.9016    1.6920   49.4336 C.ar    1  ZINC000129637895    0.1500
     19 O19        -1.0198    1.0384   48.6322 O.3     1  ZINC000129637895   -0.3200
     20 C20         0.3684    1.1915   48.9345 C.3     1  ZINC000129637895    0.0300
     21 C21        -3.2515    1.3848   49.3746 C.ar    1  ZINC000129637895   -0.1700
     22 C22        -5.8777    0.7675   51.1551 C.3     1  ZINC000129637895    0.0400
     23 C23        -7.3266    0.3306   50.9456 C.3     1  ZINC000129637895    0.1100
     24 S24       -10.2568   -2.0604   54.2752 S.3     1  ZINC000129637895    0.2400
     25 C25       -10.3773   -2.5285   55.9150 C.2     1  ZINC000129637895   -0.0300
     26 N26       -10.0186   -1.5582   56.6854 N.2     1  ZINC000129637895   -0.4500
     27 H27        -9.2883   -0.2265   58.7854 H       1  ZINC000129637895    0.0600
     28 H28        -7.7001   -0.2862   57.9838 H       1  ZINC000129637895    0.0500
     29 H29        -8.2494    1.2188   58.7594 H       1  ZINC000129637895    0.0700
     30 H30       -10.0791    1.4080   57.0966 H       1  ZINC000129637895    0.0900
     31 H31        -8.4911    1.3481   56.2950 H       1  ZINC000129637895    0.0700
     32 H32        -8.9094    1.3712   54.2557 H       1  ZINC000129637895    0.4300
     33 H33        -7.9279    2.3031   48.9623 H       1  ZINC000129637895    0.0900
     34 H34        -8.4211    3.4946   50.1942 H       1  ZINC000129637895    0.1400
     35 H35        -5.9971    3.7032   49.5112 H       1  ZINC000129637895    0.1000
     36 H36        -6.2187    3.3872   51.2492 H       1  ZINC000129637895    0.0500
     37 H37        -4.3897    3.5515   51.7102 H       1  ZINC000129637895    0.1300
     38 H38        -1.9903    4.0845   51.8172 H       1  ZINC000129637895    0.1300
     39 H39        -0.3970    2.9005   50.3644 H       1  ZINC000129637895    0.1300
     40 H40         0.6401    2.2451   48.8708 H       1  ZINC000129637895    0.0600
     41 H41         0.5630    0.8265   49.9430 H       1  ZINC000129637895    0.0600
     42 H42         0.9610    0.6196   48.2205 H       1  ZINC000129637895    0.1000
     43 H43        -3.6048    0.6287   48.6890 H       1  ZINC000129637895    0.1300
     44 H44        -5.2203   -0.0983   51.0766 H       1  ZINC000129637895    0.1000
     45 H45        -5.7748    1.2143   52.1440 H       1  ZINC000129637895    0.0500
     46 H46        -7.6375   -0.3132   51.7685 H       1  ZINC000129637895    0.1100
     47 H47        -7.4139   -0.2085   50.0023 H       1  ZINC000129637895    0.0900
     48 H48       -10.7031   -3.4997   56.2570 H       1  ZINC000129637895    0.2000
@<TRIPOS>BOND
     1     1     2    1
     2     1    27    1
     3     1    28    1
     4     1    29    1
     5     2     3    1
     6     2    30    1
     7     2    31    1
     8     3    26    1
     9     3     4    2
    10     4     5    1
    11     4    24    1
    12     5     6   am
    13     5    32    1
    14     6     7    2
    15     6     8    1
    16     8     9    2
    17     8    10   am
    18    10    23    1
    19    10    11    1
    20    11    12    1
    21    11    33    1
    22    11    34    1
    23    12    13    1
    24    12    35    1
    25    12    36    1
    26    13    14    1
    27    13    22    1
    28    14    21   ar
    29    14    15   ar
    30    15    16   ar
    31    15    37    1
    32    16    17   ar
    33    16    38    1
    34    17    18   ar
    35    17    39    1
    36    18    19    1
    37    18    21   ar
    38    19    20    1
    39    20    40    1
    40    20    41    1
    41    20    42    1
    42    21    43    1
    43    22    23    1
    44    22    44    1
    45    22    45    1
    46    23    46    1
    47    23    47    1
    48    24    25    1
    49    25    26    2
    50    25    48    1
@<TRIPOS>SUBSTRUCTURE
     1 ZINC000129637895        1 TEMP              0 ****  ****    0 ROOT


##########                                Name:    ZINC000824084043
##########                DOCK_Rotatable_Bonds:                  11
##########                         Heavy_Atoms:                  27
##########                    Molecular_Weight:             382.547
##########                DOCK_Rotatable_Bonds:                  11
##########                       Formal_Charge:        -6.85453e-07
##########                     HBond_Acceptors:                   7
##########                        HBond_Donors:                   3
##########                         Heavy_Atoms:                  27
##########                          Grid_Score:          -34.671673
##########                     Grid_vdw_energy:          -32.296749
##########                      Grid_es_energy:           -2.374923
##########           Internal_energy_repulsive:           26.812025

@<TRIPOS>MOLECULE
ZINC000824084043
 65 66 1 0 0
SMALL
USER_CHARGES


@<TRIPOS>ATOM
      1 C1         -6.7888    0.3751   66.1191 C.3     1  ZINC000824084043   -0.1400
      2 C2         -8.2953    0.6189   66.2283 C.3     1  ZINC000824084043   -0.1000
      3 C3         -8.5882    1.4481   67.4804 C.3     1  ZINC000824084043   -0.1300
      4 C4         -8.7806    1.3757   64.9903 C.3     1  ZINC000824084043    0.1700
      5 H5         -8.2621    2.3321   64.9226 H       1  ZINC000824084043    0.0700
      6 C6         -8.4872    0.5468   63.7383 C.3     1  ZINC000824084043   -0.1400
      7 C7         -9.3155    1.0804   62.5678 C.3     1  ZINC000824084043    0.1300
      8 N8         -8.8442    0.4745   61.3198 N.am    1  ZINC000824084043   -0.6200
      9 C9         -8.2770   -0.8762   61.3298 C.3     1  ZINC000824084043    0.0800
     10 C10        -8.9326    1.1598   60.1627 C.2     1  ZINC000824084043    0.7000
     11 O11        -9.4047    2.2802   60.1541 O.2     1  ZINC000824084043   -0.5800
     12 N12        -8.4976    0.6031   59.0149 N.am    1  ZINC000824084043   -0.7500
     13 C13        -8.5919    1.3486   57.7574 C.3     1  ZINC000824084043    0.1600
     14 C14        -7.3332    2.2009   57.5717 C.3     1  ZINC000824084043   -0.1600
     15 C15        -7.4022    2.9150   56.2201 C.3     1  ZINC000824084043   -0.0100
     16 N16        -7.4863    1.9225   55.1420 N.4     1  ZINC000824084043   -0.3800
     17 H17        -6.6950    1.2990   55.1978 H       1  ZINC000824084043    0.4200
     18 C18        -7.4755    2.6098   53.8437 C.3     1  ZINC000824084043    0.0000
     19 C19        -6.6405    1.8037   52.8467 C.3     1  ZINC000824084043   -0.1200
     20 C20        -7.4304    0.5657   52.3544 C.3     1  ZINC000824084043   -0.1400
     21 C21        -6.7588    0.2504   50.9947 C.3     1  ZINC000824084043   -0.1200
     22 C22        -6.4628    1.6377   50.3882 C.3     1  ZINC000824084043   -0.1300
     23 C23        -6.3876    2.6253   51.5658 C.3     1  ZINC000824084043   -0.1100
     24 C24        -8.7270    1.1491   55.2726 C.3     1  ZINC000824084043    0.0000
     25 C25        -8.7089    0.3670   56.5877 C.3     1  ZINC000824084043   -0.1600
     26 N26       -10.2232    1.6088   65.0948 N.am    1  ZINC000824084043   -0.7800
     27 C27       -10.6833    2.7685   65.6045 C.2     1  ZINC000824084043    0.6600
     28 O28       -11.8876    2.9625   65.6930 O.co2   1  ZINC000824084043   -0.7200
     29 O29        -9.8964    3.6270   65.9785 O.co2   1  ZINC000824084043   -0.7300
     30 H30        -6.4431   -0.1640   67.0010 H       1  ZINC000824084043    0.0500
     31 H31        -6.5801   -0.2156   65.2271 H       1  ZINC000824084043    0.0500
     32 H32        -6.2700    1.3313   66.0512 H       1  ZINC000824084043    0.0500
     33 H33        -8.8141   -0.3373   66.2962 H       1  ZINC000824084043    0.0500
     34 H34        -8.0695    2.4043   67.4125 H       1  ZINC000824084043    0.0600
     35 H35        -9.6615    1.6217   67.5583 H       1  ZINC000824084043    0.0700
     36 H36        -8.2425    0.9089   68.3623 H       1  ZINC000824084043    0.0300
     37 H37        -7.4270    0.6181   63.4955 H       1  ZINC000824084043    0.0700
     38 H38        -8.7484   -0.4952   63.9230 H       1  ZINC000824084043    0.0600
     39 H39       -10.3648    0.8282   62.7204 H       1  ZINC000824084043    0.0900
     40 H40        -9.2067    2.1633   62.5096 H       1  ZINC000824084043    0.0900
     41 H41        -9.0716   -1.6051   61.1704 H       1  ZINC000824084043    0.0600
     42 H42        -7.5371   -0.9655   60.5345 H       1  ZINC000824084043    0.0600
     43 H43        -7.8004   -1.0629   62.2922 H       1  ZINC000824084043    0.0800
     44 H44        -8.1219   -0.2913   59.0216 H       1  ZINC000824084043    0.4000
     45 H45        -9.4701    1.9937   57.7812 H       1  ZINC000824084043    0.1100
     46 H46        -7.2727    2.9396   58.3710 H       1  ZINC000824084043    0.1200
     47 H47        -6.4521    1.5598   57.6001 H       1  ZINC000824084043    0.0900
     48 H48        -8.2835    3.5559   56.1929 H       1  ZINC000824084043    0.1300
     49 H49        -6.5076    3.5229   56.0848 H       1  ZINC000824084043    0.1300
     50 H50        -8.4963    2.7012   53.4725 H       1  ZINC000824084043    0.1300
     51 H51        -7.0417    3.6027   53.9619 H       1  ZINC000824084043    0.1300
     52 H52        -5.6959    1.5010   53.2986 H       1  ZINC000824084043    0.1000
     53 H53        -7.3123   -0.2682   53.0462 H       1  ZINC000824084043    0.0700
     54 H54        -8.4841    0.8092   52.2174 H       1  ZINC000824084043    0.0800
     55 H55        -5.8333   -0.3051   51.1462 H       1  ZINC000824084043    0.0700
     56 H56        -7.4399   -0.3088   50.3533 H       1  ZINC000824084043    0.0800
     57 H57        -5.5115    1.6174   49.8565 H       1  ZINC000824084043    0.0700
     58 H58        -7.2646    1.9269   49.7089 H       1  ZINC000824084043    0.0700
     59 H59        -7.1529    3.3938   51.4580 H       1  ZINC000824084043    0.0700
     60 H60        -5.3998    3.0843   51.6056 H       1  ZINC000824084043    0.0800
     61 H61        -9.5800    1.8276   55.2655 H       1  ZINC000824084043    0.1300
     62 H62        -8.8104    0.4533   54.4377 H       1  ZINC000824084043    0.1300
     63 H63        -7.8564   -0.3120   56.5957 H       1  ZINC000824084043    0.0900
     64 H64        -9.6317   -0.2051   56.6836 H       1  ZINC000824084043    0.1200
     65 H65       -10.8471    0.9284   64.7972 H       1  ZINC000824084043    0.3600
@<TRIPOS>BOND
     1     1     2    1
     2     1    30    1
     3     1    31    1
     4     1    32    1
     5     2     3    1
     6     2     4    1
     7     2    33    1
     8     3    34    1
     9     3    35    1
    10     3    36    1
    11     4     5    1
    12     4     6    1
    13     4    26    1
    14     6     7    1
    15     6    37    1
    16     6    38    1
    17     7     8    1
    18     7    39    1
    19     7    40    1
    20     8     9    1
    21     8    10   am
    22     9    41    1
    23     9    42    1
    24     9    43    1
    25    10    11    2
    26    10    12   am
    27    12    13    1
    28    12    44    1
    29    13    25    1
    30    13    14    1
    31    13    45    1
    32    14    15    1
    33    14    46    1
    34    14    47    1
    35    15    16    1
    36    15    48    1
    37    15    49    1
    38    16    17    1
    39    16    18    1
    40    16    24    1
    41    18    19    1
    42    18    50    1
    43    18    51    1
    44    19    23    1
    45    19    20    1
    46    19    52    1
    47    20    21    1
    48    20    53    1
    49    20    54    1
    50    21    22    1
    51    21    55    1
    52    21    56    1
    53    22    23    1
    54    22    57    1
    55    22    58    1
    56    23    59    1
    57    23    60    1
    58    24    25    1
    59    24    61    1
    60    24    62    1
    61    25    63    1
    62    25    64    1
    63    26    27   am
    64    26    65    1
    65    27    28   ar
    66    27    29   ar
@<TRIPOS>SUBSTRUCTURE
     1 ZINC000824084043        1 TEMP              0 ****  ****    0 ROOT


##########                                Name:    ZINC000859496582
##########                DOCK_Rotatable_Bonds:                  10
##########                         Heavy_Atoms:                  26
##########                    Molecular_Weight:             361.438
##########                DOCK_Rotatable_Bonds:                  10
##########                       Formal_Charge:           0.0100006
##########                     HBond_Acceptors:                   6
##########                        HBond_Donors:                   0
##########                         Heavy_Atoms:                  26
##########                          Grid_Score:          -34.628971
##########                     Grid_vdw_energy:          -33.148582
##########                      Grid_es_energy:           -1.480389
##########           Internal_energy_repulsive:           18.090471

@<TRIPOS>MOLECULE
ZINC000859496582
 53 54 1 0 0
SMALL
USER_CHARGES


@<TRIPOS>ATOM
      1 C1         -2.8959    0.8660   49.1005 C.3     1  ZINC000859496582    0.0300
      2 O2         -2.4091    1.9784   49.8967 O.3     1  ZINC000859496582   -0.3600
      3 C3         -3.3316    2.7692   50.4671 C.2     1  ZINC000859496582    0.4600
      4 O4         -3.0101    3.5398   51.3404 O.2     1  ZINC000859496582   -0.5100
      5 C5         -4.7684    2.6958   50.0184 C.3     1  ZINC000859496582   -0.1100
      6 C6         -5.5178    1.6714   50.8727 C.3     1  ZINC000859496582   -0.1100
      7 C7         -7.0250    1.8529   50.6816 C.3     1  ZINC000859496582   -0.1200
      8 C8         -7.7660    0.6820   51.3303 C.3     1  ZINC000859496582    0.0700
      9 O9         -9.1208    1.0887   51.6583 O.3     1  ZINC000859496582   -0.3500
     10 C10        -9.8106    0.2940   52.4915 C.2     1  ZINC000859496582    0.4700
     11 O11       -10.4014   -0.6671   52.0589 O.2     1  ZINC000859496582   -0.5000
     12 C12        -9.8483    0.6006   53.9666 C.3     1  ZINC000859496582   -0.1000
     13 H13       -10.8844    0.6847   54.2943 H       1  ZINC000859496582    0.1200
     14 C14        -9.1198    1.9199   54.2328 C.3     1  ZINC000859496582   -0.1100
     15 C15        -9.1858    2.2488   55.7259 C.3     1  ZINC000859496582   -0.1300
     16 C16        -8.4861    1.1413   56.5201 C.3     1  ZINC000859496582    0.1100
     17 N17        -9.0863   -0.1504   56.1596 N.am    1  ZINC000859496582   -0.6100
     18 C18        -9.5636   -0.9756   57.1124 C.2     1  ZINC000859496582    0.5700
     19 O19       -10.0579   -2.0416   56.8013 O.2     1  ZINC000859496582   -0.5300
     20 C20        -9.4861   -0.5841   58.5359 C.ar    1  ZINC000859496582   -0.1400
     21 C21        -8.3683   -0.9283   59.2977 C.ar    1  ZINC000859496582   -0.0900
     22 C22        -8.3020   -0.5595   60.6254 C.ar    1  ZINC000859496582   -0.1200
     23 C23        -9.3407    0.1496   61.2023 C.ar    1  ZINC000859496582   -0.0600
     24 C24        -9.2616    0.5487   62.6533 C.3     1  ZINC000859496582   -0.1200
     25 C25       -10.4513    0.4944   60.4526 C.ar    1  ZINC000859496582   -0.1200
     26 C26       -10.5277    0.1364   59.1225 C.ar    1  ZINC000859496582   -0.0600
     27 C27        -9.1569   -0.5259   54.7408 C.3     1  ZINC000859496582    0.1100
     28 H28        -3.5042    1.2455   48.2796 H       1  ZINC000859496582    0.0600
     29 H29        -2.0495    0.3092   48.6984 H       1  ZINC000859496582    0.1000
     30 H30        -3.4992    0.2081   49.7260 H       1  ZINC000859496582    0.0600
     31 H31        -5.2349    3.6743   50.1318 H       1  ZINC000859496582    0.1100
     32 H32        -4.8072    2.3939   48.9716 H       1  ZINC000859496582    0.1100
     33 H33        -5.2315    0.6649   50.5677 H       1  ZINC000859496582    0.0800
     34 H34        -5.2644    1.8189   51.9226 H       1  ZINC000859496582    0.0800
     35 H35        -7.3407    2.7860   51.1482 H       1  ZINC000859496582    0.0800
     36 H36        -7.2551    1.8833   49.6165 H       1  ZINC000859496582    0.0800
     37 H37        -7.7968   -0.1579   50.6361 H       1  ZINC000859496582    0.0700
     38 H38        -7.2461    0.3824   52.2402 H       1  ZINC000859496582    0.0700
     39 H39        -8.0776    1.8274   53.9270 H       1  ZINC000859496582    0.0800
     40 H40        -9.5954    2.7186   53.6636 H       1  ZINC000859496582    0.0800
     41 H41        -8.6871    3.2001   55.9113 H       1  ZINC000859496582    0.0900
     42 H42       -10.2281    2.3171   56.0377 H       1  ZINC000859496582    0.0700
     43 H43        -7.4240    1.1317   56.2757 H       1  ZINC000859496582    0.0700
     44 H44        -8.6160    1.3194   57.5876 H       1  ZINC000859496582    0.1000
     45 H45        -7.5572   -1.4824   58.8488 H       1  ZINC000859496582    0.1300
     46 H46        -7.4377   -0.8252   61.2160 H       1  ZINC000859496582    0.1300
     47 H47        -8.7887    1.5272   62.7357 H       1  ZINC000859496582    0.0800
     48 H48       -10.2666    0.5944   63.0728 H       1  ZINC000859496582    0.0700
     49 H49        -8.6725   -0.1869   63.2008 H       1  ZINC000859496582    0.0700
     50 H50       -11.2585    1.0483   60.9087 H       1  ZINC000859496582    0.1300
     51 H51       -11.3951    0.4064   58.5383 H       1  ZINC000859496582    0.1300
     52 H52        -9.7288   -1.4478   54.6348 H       1  ZINC000859496582    0.1100
     53 H53        -8.1495   -0.6715   54.3508 H       1  ZINC000859496582    0.0800
@<TRIPOS>BOND
     1     1     2    1
     2     1    28    1
     3     1    29    1
     4     1    30    1
     5     2     3    1
     6     3     4    2
     7     3     5    1
     8     5     6    1
     9     5    31    1
    10     5    32    1
    11     6     7    1
    12     6    33    1
    13     6    34    1
    14     7     8    1
    15     7    35    1
    16     7    36    1
    17     8     9    1
    18     8    37    1
    19     8    38    1
    20     9    10    1
    21    10    11    2
    22    10    12    1
    23    12    13    1
    24    12    27    1
    25    12    14    1
    26    14    15    1
    27    14    39    1
    28    14    40    1
    29    15    16    1
    30    15    41    1
    31    15    42    1
    32    16    17    1
    33    16    43    1
    34    16    44    1
    35    17    18   am
    36    17    27    1
    37    18    19    2
    38    18    20    1
    39    20    26   ar
    40    20    21   ar
    41    21    22   ar
    42    21    45    1
    43    22    23   ar
    44    22    46    1
    45    23    24    1
    46    23    25   ar
    47    24    47    1
    48    24    48    1
    49    24    49    1
    50    25    26   ar
    51    25    50    1
    52    26    51    1
    53    27    52    1
    54    27    53    1
@<TRIPOS>SUBSTRUCTURE
     1 ZINC000859496582        1 TEMP              0 ****  ****    0 ROOT


##########                                Name:    ZINC001574157642
##########                DOCK_Rotatable_Bonds:                   9
##########                         Heavy_Atoms:                  28
##########                    Molecular_Weight:             387.445
##########                DOCK_Rotatable_Bonds:                   9
##########                       Formal_Charge:          -0.0400004
##########                     HBond_Acceptors:                  11
##########                        HBond_Donors:                   4
##########                         Heavy_Atoms:                  28
##########                          Grid_Score:          -34.597408
##########                     Grid_vdw_energy:          -34.478802
##########                      Grid_es_energy:           -0.118608
##########           Internal_energy_repulsive:            9.549983

@<TRIPOS>MOLECULE
ZINC001574157642
 53 55 1 0 0
SMALL
USER_CHARGES


@<TRIPOS>ATOM
      1 C1        -12.5999   -0.0601   57.0959 C.3     1  ZINC001574157642   -0.1400
      2 C2        -11.1989   -0.5686   56.7499 C.3     1  ZINC001574157642   -0.0900
      3 C3        -11.3117   -1.8284   55.8890 C.3     1  ZINC001574157642   -0.1500
      4 C4        -10.4409    0.5117   55.9759 C.3     1  ZINC001574157642   -0.1300
      5 C5         -8.9377    0.3462   56.2086 C.3     1  ZINC001574157642    0.1300
      6 H6         -8.6841   -0.7139   56.2050 H       1  ZINC001574157642    0.1100
      7 C7         -8.5607    0.9563   57.5601 C.3     1  ZINC001574157642    0.1100
      8 N8         -8.2291   -0.1142   58.5036 N.pl3   1  ZINC001574157642   -0.7100
      9 C9         -8.2673    0.1285   59.8710 C.ar    1  ZINC001574157642    0.3700
     10 C10        -8.0203   -0.9080   60.7697 C.ar    1  ZINC001574157642    0.0000
     11 N11        -8.0568   -0.6786   62.0672 N.ar    1  ZINC001574157642   -0.3700
     12 C12        -8.3290    0.5423   62.5193 C.ar    1  ZINC001574157642    0.0800
     13 C13        -8.3698    0.8011   63.9799 C.2     1  ZINC001574157642    0.2300
     14 N14        -8.5023    1.9734   64.5686 N.2     1  ZINC001574157642   -0.2700
     15 N15        -8.4926    1.7781   65.8424 N.pl3   1  ZINC001574157642   -0.2300
     16 N16        -8.3581    0.5199   66.0795 N.2     1  ZINC001574157642   -0.0400
     17 N17        -8.2849   -0.1123   64.9577 N.2     1  ZINC001574157642   -0.2600
     18 C18        -8.5754    1.5781   61.6211 C.ar    1  ZINC001574157642    0.1600
     19 N19        -8.5337    1.3485   60.3213 N.ar    1  ZINC001574157642   -0.5000
     20 N20        -8.2004    1.0283   55.1422 N.am    1  ZINC001574157642   -0.7300
     21 C21        -8.0463    0.4336   53.9426 C.2     1  ZINC001574157642    0.5200
     22 O22        -8.5167   -0.6669   53.7464 O.2     1  ZINC001574157642   -0.5100
     23 C23        -7.2894    1.1360   52.8449 C.3     1  ZINC001574157642   -0.1300
     24 H24        -6.5756    1.8342   53.2820 H       1  ZINC001574157642    0.1100
     25 C25        -8.2725    1.8988   51.9488 C.3     1  ZINC001574157642   -0.1000
     26 C26        -7.4681    2.7457   50.9594 C.3     1  ZINC001574157642   -0.1400
     27 C27        -6.4078    1.9035   50.3101 C.2     1  ZINC001574157642    0.5200
     28 O28        -5.9000    2.3090   49.2860 O.2     1  ZINC001574157642   -0.5500
     29 N29        -5.9942    0.7340   50.7995 N.am    1  ZINC001574157642   -0.7200
     30 C30        -6.5447    0.1059   51.9949 C.3     1  ZINC001574157642    0.1200
     31 H31       -13.1383    0.1744   56.1776 H       1  ZINC001574157642    0.0400
     32 H32       -13.1398   -0.8298   57.6473 H       1  ZINC001574157642    0.0500
     33 H33       -12.5194    0.8373   57.7092 H       1  ZINC001574157642    0.0700
     34 H34       -10.6604   -0.8031   57.6681 H       1  ZINC001574157642    0.0700
     35 H35       -11.8502   -1.5939   54.9708 H       1  ZINC001574157642    0.0500
     36 H36       -10.3137   -2.1907   55.6425 H       1  ZINC001574157642    0.0500
     37 H37       -11.8518   -2.5981   56.4404 H       1  ZINC001574157642    0.0500
     38 H38       -10.6565    0.4153   54.9118 H       1  ZINC001574157642    0.0700
     39 H39       -10.7560    1.4958   56.3227 H       1  ZINC001574157642    0.0800
     40 H40        -7.6980    1.6107   57.4353 H       1  ZINC001574157642    0.0800
     41 H41        -9.4015    1.5330   57.9456 H       1  ZINC001574157642    0.0900
     42 H42        -7.9830   -0.9926   58.1737 H       1  ZINC001574157642    0.4100
     43 H43        -7.7992   -1.8994   60.4027 H       1  ZINC001574157642    0.1700
     44 H44        -8.5734    2.4707   66.5168 H       1  ZINC001574157642    0.4800
     45 H45        -8.7969    2.5696   61.9876 H       1  ZINC001574157642    0.1800
     46 H46        -7.8231    1.9080   55.2994 H       1  ZINC001574157642    0.4000
     47 H47        -8.8967    1.1910   51.4032 H       1  ZINC001574157642    0.0800
     48 H48        -8.9001    2.5465   52.5608 H       1  ZINC001574157642    0.0900
     49 H49        -8.1362    3.1404   50.1939 H       1  ZINC001574157642    0.1100
     50 H50        -6.9982    3.5737   51.4901 H       1  ZINC001574157642    0.1000
     51 H51        -5.2805    0.2724   50.3322 H       1  ZINC001574157642    0.4000
     52 H52        -5.7340   -0.3310   52.5780 H       1  ZINC001574157642    0.0800
     53 H53        -7.2381   -0.6821   51.7009 H       1  ZINC001574157642    0.0700
@<TRIPOS>BOND
     1     1     2    1
     2     1    31    1
     3     1    32    1
     4     1    33    1
     5     2     3    1
     6     2     4    1
     7     2    34    1
     8     3    35    1
     9     3    36    1
    10     3    37    1
    11     4     5    1
    12     4    38    1
    13     4    39    1
    14     5     6    1
    15     5     7    1
    16     5    20    1
    17     7     8    1
    18     7    40    1
    19     7    41    1
    20     8     9    1
    21     8    42    1
    22     9    19   ar
    23     9    10   ar
    24    10    11   ar
    25    10    43    1
    26    11    12   ar
    27    12    13    1
    28    12    18   ar
    29    13    17    1
    30    13    14    2
    31    14    15    1
    32    15    16    1
    33    15    44    1
    34    16    17    2
    35    18    19   ar
    36    18    45    1
    37    20    21   am
    38    20    46    1
    39    21    22    2
    40    21    23    1
    41    23    24    1
    42    23    30    1
    43    23    25    1
    44    25    26    1
    45    25    47    1
    46    25    48    1
    47    26    27    1
    48    26    49    1
    49    26    50    1
    50    27    28    2
    51    27    29   am
    52    29    30    1
    53    29    51    1
    54    30    52    1
    55    30    53    1
@<TRIPOS>SUBSTRUCTURE
     1 ZINC001574157642        1 TEMP              0 ****  ****    0 ROOT


##########                                Name:     oleObject15.pdb
##########                DOCK_Rotatable_Bonds:                   9
##########                         Heavy_Atoms:                  29
##########                    Molecular_Weight:             395.545
##########                DOCK_Rotatable_Bonds:                   9
##########                       Formal_Charge:         0.000700183
##########                     HBond_Acceptors:                   5
##########                        HBond_Donors:                   1
##########                         Heavy_Atoms:                  29
##########                          Grid_Score:          -34.578297
##########                     Grid_vdw_energy:          -34.671387
##########                      Grid_es_energy:            0.093090
##########           Internal_energy_repulsive:           12.356600

@<TRIPOS>MOLECULE
oleObject15.pdb
 62 64 1 0 0
SMALL
NO_CHARGES


@<TRIPOS>ATOM
      1 O          -6.9217    1.5812   50.6572 O.3     1  UNL        -0.3745
      2 C          -6.3612    0.3726   51.2183 C.3     1  UNL         0.0600
      3 C          -6.7973    0.2680   52.6982 C.3     1  UNL         0.0217
      4 N          -8.2426    0.4953   52.9322 N.4     1  UNL        -0.3010
      5 C          -9.1315   -0.5487   52.3725 C.3     1  UNL        -0.0010
      6 C         -10.6225   -0.1819   52.5368 C.3     1  UNL        -0.0289
      7 C         -11.0029    0.1472   54.0004 C.3     1  UNL         0.0382
      8 C         -10.0050    1.1757   54.5902 C.3     1  UNL        -0.0289
      9 C          -8.5237    0.8008   54.3509 C.3     1  UNL        -0.0010
     10 C         -11.1107   -1.1328   54.8659 C.2     1  UNL         0.2156
     11 O         -10.2352   -1.9790   54.8763 O.2     1  UNL        -0.2774
     12 N         -12.2100   -1.3152   55.6952 N.am    1  UNL        -0.3025
     13 C         -12.4867   -2.4582   56.5855 C.3     1  UNL         0.0900
     14 C         -11.3330   -2.7625   57.5393 C.ar    1  UNL        -0.0217
     15 C         -10.5642   -1.7266   58.1074 C.ar    1  UNL        -0.0568
     16 C          -9.4989   -2.0245   58.9728 C.ar    1  UNL        -0.0619
     17 C          -9.1953   -3.3600   59.2800 C.ar    1  UNL        -0.0622
     18 C          -9.9599   -4.3971   58.7231 C.ar    1  UNL        -0.0619
     19 C         -11.0253   -4.0989   57.8580 C.ar    1  UNL        -0.0568
     20 C         -13.7896   -2.2695   57.3571 C.ar    1  UNL         0.0652
     21 C         -14.2589   -0.9896   57.7179 C.ar    1  UNL        -0.0383
     22 C         -15.4609   -0.8815   58.4355 C.ar    1  UNL        -0.0588
     23 C         -16.1514   -2.0569   58.7688 C.ar    1  UNL        -0.0438
     24 C         -15.6119   -3.2923   58.3713 C.ar    1  UNL         0.0272
     25 N         -14.4576   -3.3980   57.6822 N.ar    1  UNL        -0.2590
     26 C          -6.1581    2.8100   50.6993 C.3     1  UNL         0.0599
     27 C          -4.9294    2.6910   49.7629 C.3     1  UNL        -0.0364
     28 C          -7.1208    3.8978   50.1716 C.3     1  UNL        -0.0364
     29 C          -5.7422    3.1276   52.1575 C.3     1  UNL        -0.0364
     30 H          -5.2659    0.4039   51.1751 H       1  UNL         0.0581
     31 H          -6.6980   -0.5156   50.6728 H       1  UNL         0.0581
     32 H          -6.2203    1.0080   53.2673 H       1  UNL         0.0455
     33 H          -6.5176   -0.7237   53.0755 H       1  UNL         0.0455
     34 H          -8.9352   -1.5081   52.8681 H       1  UNL         0.0431
     35 H          -8.9400   -0.6810   51.3013 H       1  UNL         0.0431
     36 H         -11.2464   -0.9982   52.1548 H       1  UNL         0.0288
     37 H         -10.8353    0.6939   51.9100 H       1  UNL         0.0288
     38 H         -11.9743    0.6481   53.9805 H       1  UNL         0.0402
     39 H         -10.1885    1.3050   55.6643 H       1  UNL         0.0288
     40 H         -10.1904    2.1510   54.1216 H       1  UNL         0.0288
     41 H          -8.2617   -0.0645   54.9725 H       1  UNL         0.0431
     42 H          -7.8971    1.6398   54.6799 H       1  UNL         0.0431
     43 H         -12.8437   -0.5288   55.7580 H       1  UNL         0.1504
     44 H         -12.6336   -3.3329   55.9392 H       1  UNL         0.0624
     45 H         -10.7838   -0.6893   57.8720 H       1  UNL         0.0626
     46 H          -8.9082   -1.2208   59.4027 H       1  UNL         0.0623
     47 H          -8.3710   -3.5906   59.9488 H       1  UNL         0.0623
     48 H          -9.7278   -5.4311   58.9619 H       1  UNL         0.0623
     49 H         -11.6117   -4.9088   57.4331 H       1  UNL         0.0626
     50 H         -13.7037   -0.0963   57.4482 H       1  UNL         0.0643
     51 H         -15.8474    0.0909   58.7270 H       1  UNL         0.0624
     52 H         -17.0841   -2.0137   59.3233 H       1  UNL         0.0639
     53 H         -16.1187   -4.2260   58.6123 H       1  UNL         0.0840
     54 H          -5.2299    2.3368   48.7685 H       1  UNL         0.0260
     55 H          -4.1820    1.9956   50.1634 H       1  UNL         0.0260
     56 H          -4.4392    3.6651   49.6411 H       1  UNL         0.0260
     57 H          -7.4492    3.6665   49.1501 H       1  UNL         0.0260
     58 H          -6.6346    4.8815   50.1570 H       1  UNL         0.0260
     59 H          -8.0138    3.9702   50.8056 H       1  UNL         0.0260
     60 H          -4.9972    2.4127   52.5281 H       1  UNL         0.0260
     61 H          -6.6113    3.0966   52.8270 H       1  UNL         0.0260
     62 H          -5.2993    4.1293   52.2247 H       1  UNL         0.0260
@<TRIPOS>BOND
     1     1     2    1
     2     1    26    1
     3     2     3    1
     4     2    30    1
     5     2    31    1
     6     3     4    1
     7     3    32    1
     8     3    33    1
     9     4     5    1
    10     4     9    1
    11     5     6    1
    12     5    34    1
    13     5    35    1
    14     6     7    1
    15     6    36    1
    16     6    37    1
    17     7     8    1
    18     7    10    1
    19     7    38    1
    20     8     9    1
    21     8    39    1
    22     8    40    1
    23     9    41    1
    24     9    42    1
    25    10    11    2
    26    10    12   am
    27    12    13    1
    28    12    43    1
    29    13    14    1
    30    13    20    1
    31    13    44    1
    32    14    15   ar
    33    14    19   ar
    34    15    16   ar
    35    15    45    1
    36    16    17   ar
    37    16    46    1
    38    17    18   ar
    39    17    47    1
    40    18    19   ar
    41    18    48    1
    42    19    49    1
    43    20    21   ar
    44    20    25   ar
    45    21    22   ar
    46    21    50    1
    47    22    23   ar
    48    22    51    1
    49    23    24   ar
    50    23    52    1
    51    24    25   ar
    52    24    53    1
    53    26    27    1
    54    26    28    1
    55    26    29    1
    56    27    54    1
    57    27    55    1
    58    27    56    1
    59    28    57    1
    60    28    58    1
    61    28    59    1
    62    29    60    1
    63    29    61    1
    64    29    62    1
@<TRIPOS>SUBSTRUCTURE
     1 UNL         1 TEMP              0 ****  ****    0 ROOT


##########                                Name:    ZINC001083519372
##########                DOCK_Rotatable_Bonds:                   7
##########                         Heavy_Atoms:                  27
##########                    Molecular_Weight:             370.411
##########                DOCK_Rotatable_Bonds:                   7
##########                       Formal_Charge:           0.0399996
##########                     HBond_Acceptors:                   9
##########                        HBond_Donors:                   2
##########                         Heavy_Atoms:                  27
##########                          Grid_Score:          -34.547829
##########                     Grid_vdw_energy:          -34.442104
##########                      Grid_es_energy:           -0.105725
##########           Internal_energy_repulsive:            8.213283

@<TRIPOS>MOLECULE
ZINC001083519372
 49 52 1 0 0
SMALL
USER_CHARGES


@<TRIPOS>ATOM
      1 C1        -10.3960   -0.4600   56.7994 C.3     1  ZINC001083519372   -0.1500
      2 C2        -10.2399   -0.9546   55.3601 C.3     1  ZINC001083519372   -0.0100
      3 C3        -10.5212   -2.4575   55.3040 C.3     1  ZINC001083519372   -0.1500
      4 C4        -11.2151   -0.2275   54.4705 C.2     1  ZINC001083519372   -0.0100
      5 C5        -10.9864    0.9148   53.8016 C.2     1  ZINC001083519372   -0.0100
      6 C6         -9.7033    1.7052   53.8043 C.3     1  ZINC001083519372    0.1300
      7 N7         -9.0808    1.6328   52.4757 N.3     1  ZINC001083519372   -0.5000
      8 C8         -7.7861    2.3603   52.4542 C.3     1  ZINC001083519372    0.0300
      9 C9         -7.0599    1.7553   51.2266 C.3     1  ZINC001083519372    0.1500
     10 H10        -7.4123    2.2164   50.3039 H       1  ZINC001083519372    0.1200
     11 N11        -5.6084    1.9050   51.3572 N.am    1  ZINC001083519372   -0.6900
     12 C12        -4.8538    2.1365   50.2648 C.2     1  ZINC001083519372    0.5600
     13 O13        -5.3778    2.2226   49.1709 O.2     1  ZINC001083519372   -0.5100
     14 C14        -3.3922    2.2855   50.3959 C.2     1  ZINC001083519372    0.1400
     15 C15        -2.8597    3.1851   51.2797 C.2     1  ZINC001083519372   -0.1500
     16 C16        -1.4671    3.3033   51.3811 C.2     1  ZINC001083519372    0.1800
     17 N17        -0.6810    2.5615   50.6385 N.2     1  ZINC001083519372   -0.4400
     18 C18        -1.1815    1.6773   49.7695 C.2     1  ZINC001083519372    0.2500
     19 C19        -0.5837    0.7884   48.8826 C.2     1  ZINC001083519372   -0.2500
     20 C20        -1.5945    0.1099   48.2221 C.2     1  ZINC001083519372    0.1000
     21 N21        -2.7575    0.5397   48.6609 N.2     1  ZINC001083519372   -0.3100
     22 N22        -2.5387    1.5188   49.6359 N.pl3   1  ZINC001083519372   -0.3100
     23 C23        -7.4673    0.2650   51.2837 C.3     1  ZINC001083519372    0.0900
     24 H24        -7.6527   -0.1152   50.2791 H       1  ZINC001083519372    0.0800
     25 O25        -6.4470   -0.5039   51.9238 O.3     1  ZINC001083519372   -0.5600
     26 C26        -8.7634    0.2341   52.1146 C.3     1  ZINC001083519372    0.0100
     27 N27       -12.1087    1.2257   53.1292 N.2     1  ZINC001083519372   -0.4800
     28 C28       -13.0057    0.3121   53.3686 C.2     1  ZINC001083519372    0.1700
     29 O29       -12.4785   -0.6041   54.1917 O.3     1  ZINC001083519372   -0.2000
     30 H30       -10.1957    0.6107   56.8394 H       1  ZINC001083519372    0.0600
     31 H31       -11.4130   -0.6523   57.1414 H       1  ZINC001083519372    0.0600
     32 H32        -9.6907   -0.9858   57.4429 H       1  ZINC001083519372    0.0700
     33 H33        -9.2231   -0.7623   55.0180 H       1  ZINC001083519372    0.1000
     34 H34       -11.5381   -2.6499   55.6460 H       1  ZINC001083519372    0.0600
     35 H35       -10.4100   -2.8099   54.2785 H       1  ZINC001083519372    0.0600
     36 H36        -9.8159   -2.9835   55.9474 H       1  ZINC001083519372    0.0700
     37 H37        -9.9179    2.7455   54.0488 H       1  ZINC001083519372    0.0900
     38 H38        -9.0226    1.2902   54.5476 H       1  ZINC001083519372    0.0600
     39 H39        -7.9479    3.4295   52.3171 H       1  ZINC001083519372    0.1000
     40 H40        -7.2224    2.1695   53.3673 H       1  ZINC001083519372    0.0600
     41 H41        -5.1904    1.8376   52.2300 H       1  ZINC001083519372    0.4300
     42 H42        -3.5057    3.7970   51.8918 H       1  ZINC001083519372    0.1800
     43 H43        -1.0382    4.0107   52.0755 H       1  ZINC001083519372    0.1900
     44 H44         0.4775    0.6521   48.7352 H       1  ZINC001083519372    0.1700
     45 H45        -1.4507   -0.6498   47.4681 H       1  ZINC001083519372    0.2000
     46 H46        -5.5887   -0.4655   51.4799 H       1  ZINC001083519372    0.3900
     47 H47        -8.6116   -0.3572   53.0176 H       1  ZINC001083519372    0.0700
     48 H48        -9.5743   -0.1896   51.5221 H       1  ZINC001083519372    0.0900
     49 H49       -14.0079    0.2940   52.9664 H       1  ZINC001083519372    0.2500
@<TRIPOS>BOND
     1     1     2    1
     2     1    30    1
     3     1    31    1
     4     1    32    1
     5     2     3    1
     6     2     4    1
     7     2    33    1
     8     3    34    1
     9     3    35    1
    10     3    36    1
    11     4    29    1
    12     4     5    2
    13     5     6    1
    14     5    27    1
    15     6     7    1
    16     6    37    1
    17     6    38    1
    18     7    26    1
    19     7     8    1
    20     8     9    1
    21     8    39    1
    22     8    40    1
    23     9    10    1
    24     9    11    1
    25     9    23    1
    26    11    12   am
    27    11    41    1
    28    12    13    2
    29    12    14    1
    30    14    22    1
    31    14    15    2
    32    15    16    1
    33    15    42    1
    34    16    17    2
    35    16    43    1
    36    17    18    1
    37    18    22    1
    38    18    19    2
    39    19    20    1
    40    19    44    1
    41    20    21    2
    42    20    45    1
    43    21    22    1
    44    23    24    1
    45    23    25    1
    46    23    26    1
    47    25    46    1
    48    26    47    1
    49    26    48    1
    50    27    28    2
    51    28    29    1
    52    28    49    1
@<TRIPOS>SUBSTRUCTURE
     1 ZINC001083519372        1 TEMP              0 ****  ****    0 ROOT


##########                                Name:    ZINC001461256440
##########                DOCK_Rotatable_Bonds:                  13
##########                         Heavy_Atoms:                  26
##########                    Molecular_Weight:             367.445
##########                DOCK_Rotatable_Bonds:                  13
##########                       Formal_Charge:        -6.37025e-07
##########                     HBond_Acceptors:                   8
##########                        HBond_Donors:                   1
##########                         Heavy_Atoms:                  26
##########                          Grid_Score:          -34.523750
##########                     Grid_vdw_energy:          -32.589821
##########                      Grid_es_energy:           -1.933930
##########           Internal_energy_repulsive:           35.710136

@<TRIPOS>MOLECULE
ZINC001461256440
 55 55 1 0 0
SMALL
USER_CHARGES


@<TRIPOS>ATOM
      1 C1         -9.8212   -3.9419   58.9592 C.3     1  ZINC001461256440   -0.1500
      2 C2        -10.5862   -3.7347   57.6504 C.3     1  ZINC001461256440    0.0600
      3 O3        -10.8877   -2.3242   57.4841 O.3     1  ZINC001461256440   -0.3600
      4 C4        -11.1285   -1.8956   56.2351 C.2     1  ZINC001461256440    0.4400
      5 O5        -11.3794   -2.6913   55.3612 O.2     1  ZINC001461256440   -0.4800
      6 C6        -11.0857   -0.4219   55.9227 C.3     1  ZINC001461256440    0.1400
      7 N7         -9.7894   -0.0861   55.3287 N.pl3   1  ZINC001461256440   -0.3800
      8 N8         -9.3353   -0.4810   54.0639 N.2     1  ZINC001461256440   -0.2800
      9 C9         -8.1356    0.0100   53.8846 C.2     1  ZINC001461256440    0.1000
     10 C10        -7.2817   -0.1735   52.6565 C.3     1  ZINC001461256440   -0.0700
     11 C11        -7.7822    0.7343   55.0263 C.2     1  ZINC001461256440   -0.2700
     12 C12        -8.8217    0.6651   55.9021 C.2     1  ZINC001461256440    0.3100
     13 N13        -8.8758    1.2545   57.1651 N.am    1  ZINC001461256440   -0.6500
     14 C14        -8.3115    0.6369   58.2218 C.2     1  ZINC001461256440    0.5200
     15 O15        -7.7554   -0.4309   58.0742 O.2     1  ZINC001461256440   -0.5000
     16 C16        -8.3716    1.2729   59.5866 C.3     1  ZINC001461256440   -0.1300
     17 C17        -8.3498    0.1820   60.6590 C.3     1  ZINC001461256440   -0.1100
     18 C18        -8.4798    0.8235   62.0419 C.3     1  ZINC001461256440   -0.1100
     19 C19        -8.3684   -0.2580   63.1185 C.3     1  ZINC001461256440   -0.1200
     20 C20        -8.4387    0.3809   64.4815 C.2     1  ZINC001461256440    0.4600
     21 O21        -8.8682   -0.2457   65.4210 O.2     1  ZINC001461256440   -0.5000
     22 O22        -8.0241    1.6462   64.6518 O.3     1  ZINC001461256440   -0.3500
     23 C23        -8.1454    2.2057   65.9862 C.3     1  ZINC001461256440    0.1200
     24 C24        -7.6363    3.6485   65.9824 C.3     1  ZINC001461256440   -0.1800
     25 C25        -9.6133    2.1839   66.4169 C.3     1  ZINC001461256440   -0.1400
     26 C26        -7.3143    1.3742   66.9654 C.3     1  ZINC001461256440   -0.1800
     27 H27        -9.5949   -5.0008   59.0840 H       1  ZINC001461256440    0.0800
     28 H28        -8.8922   -3.3726   58.9310 H       1  ZINC001461256440    0.0700
     29 H29       -10.4317   -3.5998   59.7949 H       1  ZINC001461256440    0.0700
     30 H30        -9.9757   -4.0768   56.8146 H       1  ZINC001461256440    0.0700
     31 H31       -11.5153   -4.3040   57.6786 H       1  ZINC001461256440    0.0700
     32 H32       -11.8820   -0.1762   55.2201 H       1  ZINC001461256440    0.1300
     33 H33       -11.2230    0.1484   56.8414 H       1  ZINC001461256440    0.1400
     34 H34        -7.4849    0.6306   51.9492 H       1  ZINC001461256440    0.0800
     35 H35        -6.2293   -0.1514   52.9392 H       1  ZINC001461256440    0.0800
     36 H36        -7.5133   -1.1325   52.1929 H       1  ZINC001461256440    0.0700
     37 H37        -6.8512    1.2587   55.1840 H       1  ZINC001461256440    0.1800
     38 H38        -9.3195    2.1090   57.2828 H       1  ZINC001461256440    0.4100
     39 H39        -7.5122    1.9301   59.7193 H       1  ZINC001461256440    0.1000
     40 H40        -9.2899    1.8531   59.6770 H       1  ZINC001461256440    0.1000
     41 H41        -9.1816   -0.5036   60.4969 H       1  ZINC001461256440    0.0800
     42 H42        -7.4099   -0.3668   60.6000 H       1  ZINC001461256440    0.0800
     43 H43        -7.6843    1.5559   62.1789 H       1  ZINC001461256440    0.0700
     44 H44        -9.4474    1.3187   62.1233 H       1  ZINC001461256440    0.0700
     45 H45        -9.1883   -0.9675   63.0070 H       1  ZINC001461256440    0.1100
     46 H46        -7.4182   -0.7810   63.0109 H       1  ZINC001461256440    0.1100
     47 H47        -8.2284    4.2409   65.2849 H       1  ZINC001461256440    0.0600
     48 H48        -7.7273    4.0686   66.9842 H       1  ZINC001461256440    0.0700
     49 H49        -6.5905    3.6641   65.6756 H       1  ZINC001461256440    0.0800
     50 H50        -9.9760    1.1561   66.4195 H       1  ZINC001461256440    0.0700
     51 H51        -9.7043    2.6039   67.4185 H       1  ZINC001461256440    0.0800
     52 H52       -10.2055    2.7764   65.7193 H       1  ZINC001461256440    0.0700
     53 H53        -6.2684    1.3898   66.6585 H       1  ZINC001461256440    0.0800
     54 H54        -7.4053    1.7942   67.9670 H       1  ZINC001461256440    0.0700
     55 H55        -7.6769    0.3463   66.9680 H       1  ZINC001461256440    0.0600
@<TRIPOS>BOND
     1     1     2    1
     2     1    27    1
     3     1    28    1
     4     1    29    1
     5     2     3    1
     6     2    30    1
     7     2    31    1
     8     3     4    1
     9     4     5    2
    10     4     6    1
    11     6     7    1
    12     6    32    1
    13     6    33    1
    14     7    12    1
    15     7     8    1
    16     8     9    2
    17     9    10    1
    18     9    11    1
    19    10    34    1
    20    10    35    1
    21    10    36    1
    22    11    12    2
    23    11    37    1
    24    12    13    1
    25    13    14   am
    26    13    38    1
    27    14    15    2
    28    14    16    1
    29    16    17    1
    30    16    39    1
    31    16    40    1
    32    17    18    1
    33    17    41    1
    34    17    42    1
    35    18    19    1
    36    18    43    1
    37    18    44    1
    38    19    20    1
    39    19    45    1
    40    19    46    1
    41    20    21    2
    42    20    22    1
    43    22    23    1
    44    23    24    1
    45    23    25    1
    46    23    26    1
    47    24    47    1
    48    24    48    1
    49    24    49    1
    50    25    50    1
    51    25    51    1
    52    25    52    1
    53    26    53    1
    54    26    54    1
    55    26    55    1
@<TRIPOS>SUBSTRUCTURE
     1 ZINC001461256440        1 TEMP              0 ****  ****    0 ROOT


##########                                Name:    ZINC001362587626
##########                DOCK_Rotatable_Bonds:                   9
##########                         Heavy_Atoms:                  25
##########                    Molecular_Weight:             346.346
##########                DOCK_Rotatable_Bonds:                   9
##########                       Formal_Charge:        -4.02331e-07
##########                     HBond_Acceptors:                  10
##########                        HBond_Donors:                   2
##########                         Heavy_Atoms:                  25
##########                          Grid_Score:          -34.519142
##########                     Grid_vdw_energy:          -33.878311
##########                      Grid_es_energy:           -0.640832
##########           Internal_energy_repulsive:            5.987323

@<TRIPOS>MOLECULE
ZINC001362587626
 43 45 1 0 0
SMALL
USER_CHARGES


@<TRIPOS>ATOM
      1 C1        -10.3996   -3.2672   58.5081 C.3     1  ZINC001362587626   -0.1600
      2 C2        -11.2949   -2.5083   57.5266 C.3     1  ZINC001362587626    0.1300
      3 H3        -11.6521   -1.5913   57.9954 H       1  ZINC001362587626    0.1200
      4 N4        -12.4387   -3.3471   57.1602 N.am    1  ZINC001362587626   -0.7100
      5 C5        -13.5558   -3.3300   57.9141 C.2     1  ZINC001362587626    0.5100
      6 O6        -13.6147   -2.6191   58.8949 O.2     1  ZINC001362587626   -0.5000
      7 C7        -14.7319   -4.1943   57.5381 C.3     1  ZINC001362587626    0.1000
      8 N8        -15.9764   -3.4730   57.8159 N.pl3   1  ZINC001362587626   -0.3100
      9 C9        -16.5903   -2.5949   57.0012 C.2     1  ZINC001362587626    0.1600
     10 N10       -17.6649   -2.1858   57.6304 N.2     1  ZINC001362587626   -0.3000
     11 N11       -17.7087   -2.7817   58.7718 N.2     1  ZINC001362587626   -0.0700
     12 N12       -16.6928   -3.5645   58.8849 N.2     1  ZINC001362587626   -0.0700
     13 C13       -10.5063   -2.1657   56.2891 C.2     1  ZINC001362587626    0.5100
     14 O14        -9.9129   -3.0362   55.6878 O.2     1  ZINC001362587626   -0.5200
     15 N15       -10.4602   -0.8921   55.8504 N.am    1  ZINC001362587626   -0.6600
     16 C16        -9.7269   -0.5737   54.6999 C.ar    1  ZINC001362587626    0.1000
     17 C17       -10.2763   -0.7923   53.4435 C.ar    1  ZINC001362587626   -0.1000
     18 C18        -9.5533   -0.4778   52.3099 C.ar    1  ZINC001362587626   -0.1900
     19 C19        -8.2781    0.0560   52.4260 C.ar    1  ZINC001362587626    0.1200
     20 O20        -7.5665    0.3650   51.3093 O.3     1  ZINC001362587626   -0.2800
     21 C21        -7.1184    1.7157   51.1787 C.3     1  ZINC001362587626    0.0100
     22 C22        -6.7067    2.0984   49.7446 C.3     1  ZINC001362587626    0.0200
     23 O23        -8.0738    2.5287   49.5880 O.3     1  ZINC001362587626   -0.3700
     24 C24        -8.2595    2.7353   51.0027 C.3     1  ZINC001362587626    0.0400
     25 C25        -7.7287    0.2750   53.6808 C.ar    1  ZINC001362587626   -0.1300
     26 C26        -8.4528   -0.0341   54.8154 C.ar    1  ZINC001362587626   -0.0800
     27 H27       -10.0423   -4.1843   58.0395 H       1  ZINC001362587626    0.0700
     28 H28        -9.5485   -2.6431   58.7808 H       1  ZINC001362587626    0.0800
     29 H29       -10.9700   -3.5150   59.4033 H       1  ZINC001362587626    0.0800
     30 H30       -12.3921   -3.9147   56.3751 H       1  ZINC001362587626    0.4100
     31 H31       -14.6808   -4.4353   56.4763 H       1  ZINC001362587626    0.1500
     32 H32       -14.7074   -5.1148   58.1213 H       1  ZINC001362587626    0.1400
     33 H33       -16.2610   -2.2866   56.0199 H       1  ZINC001362587626    0.2400
     34 H34       -10.9346   -0.1961   56.3312 H       1  ZINC001362587626    0.4100
     35 H35       -11.2687   -1.2085   53.3530 H       1  ZINC001362587626    0.1300
     36 H36        -9.9804   -0.6478   51.3326 H       1  ZINC001362587626    0.1400
     37 H37        -6.3892    1.9978   51.9381 H       1  ZINC001362587626    0.0900
     38 H38        -5.9806    2.9099   49.6960 H       1  ZINC001362587626    0.1000
     39 H39        -6.4384    1.2460   49.1205 H       1  ZINC001362587626    0.1000
     40 H40        -9.2227    2.3882   51.3764 H       1  ZINC001362587626    0.1000
     41 H41        -8.0076    3.7413   51.3382 H       1  ZINC001362587626    0.1000
     42 H42        -6.7360    0.6907   53.7705 H       1  ZINC001362587626    0.1400
     43 H43        -8.0252    0.1370   55.7923 H       1  ZINC001362587626    0.1500
@<TRIPOS>BOND
     1     1     2    1
     2     1    27    1
     3     1    28    1
     4     1    29    1
     5     2     3    1
     6     2     4    1
     7     2    13    1
     8     4     5   am
     9     4    30    1
    10     5     6    2
    11     5     7    1
    12     7     8    1
    13     7    31    1
    14     7    32    1
    15     8    12    1
    16     8     9    1
    17     9    10    2
    18     9    33    1
    19    10    11    1
    20    11    12    2
    21    13    14    2
    22    13    15   am
    23    15    16    1
    24    15    34    1
    25    16    26   ar
    26    16    17   ar
    27    17    18   ar
    28    17    35    1
    29    18    19   ar
    30    18    36    1
    31    19    20    1
    32    19    25   ar
    33    20    21    1
    34    21    24    1
    35    21    22    1
    36    21    37    1
    37    22    23    1
    38    22    38    1
    39    22    39    1
    40    23    24    1
    41    24    40    1
    42    24    41    1
    43    25    26   ar
    44    25    42    1
    45    26    43    1
@<TRIPOS>SUBSTRUCTURE
     1 ZINC001362587626        1 TEMP              0 ****  ****    0 ROOT


##########                                Name:    ZINC000840464592
##########                DOCK_Rotatable_Bonds:                  10
##########                         Heavy_Atoms:                  26
##########                    Molecular_Weight:             360.497
##########                DOCK_Rotatable_Bonds:                  10
##########                       Formal_Charge:          -0.0399996
##########                     HBond_Acceptors:                   5
##########                        HBond_Donors:                   1
##########                         Heavy_Atoms:                  26
##########                          Grid_Score:          -34.517136
##########                     Grid_vdw_energy:          -33.788437
##########                      Grid_es_energy:           -0.728698
##########           Internal_energy_repulsive:           82.746544

@<TRIPOS>MOLECULE
ZINC000840464592
 58 59 1 0 0
SMALL
USER_CHARGES


@<TRIPOS>ATOM
      1 C1         -4.5748    2.6983   50.4384 C.3     1  ZINC000840464592   -0.1500
      2 C2         -5.9471    2.1018   50.1191 C.3     1  ZINC000840464592   -0.1300
      3 C3         -6.4059    1.2248   51.2857 C.3     1  ZINC000840464592   -0.1200
      4 C4         -7.7261    0.5421   50.9222 C.3     1  ZINC000840464592   -0.1200
      5 C5         -8.1308   -0.4158   52.0444 C.3     1  ZINC000840464592   -0.1200
      6 C6         -8.5143    0.3886   53.2881 C.3     1  ZINC000840464592    0.0600
      7 O7         -9.1129   -0.4804   54.2517 O.3     1  ZINC000840464592   -0.3600
      8 C8         -9.2681    0.1056   55.5457 C.3     1  ZINC000840464592    0.0800
      9 H9         -8.2894    0.3781   55.9409 H       1  ZINC000840464592    0.0800
     10 C10       -10.1410    1.3574   55.4375 C.3     1  ZINC000840464592   -0.1800
     11 C11        -9.9248   -0.8863   56.4708 C.2     1  ZINC000840464592    0.5200
     12 O12       -10.5308   -1.8325   56.0141 O.2     1  ZINC000840464592   -0.5000
     13 N13        -9.8390   -0.7221   57.8058 N.am    1  ZINC000840464592   -0.6000
     14 C14        -9.1082    0.4189   58.3514 C.3     1  ZINC000840464592    0.0900
     15 C15        -7.9062   -0.0292   59.1752 C.3     1  ZINC000840464592   -0.1600
     16 C16        -8.3693   -0.8477   60.3825 C.3     1  ZINC000840464592    0.0800
     17 N17        -8.4603   -2.2603   59.9974 N.am    1  ZINC000840464592   -0.7200
     18 C18        -9.4360   -2.6781   59.1754 C.2     1  ZINC000840464592    0.5100
     19 O19        -9.4807   -3.8357   58.8160 O.2     1  ZINC000840464592   -0.5200
     20 C20       -10.4849   -1.6866   58.7022 C.3     1  ZINC000840464592    0.1400
     21 H21       -11.2726   -2.2156   58.1659 H       1  ZINC000840464592    0.1300
     22 C22       -11.0841   -0.9591   59.9075 C.3     1  ZINC000840464592   -0.1000
     23 C23       -12.5881   -1.0156   59.8316 C.ar    1  ZINC000840464592   -0.0900
     24 C24       -13.2669   -2.0959   60.3638 C.ar    1  ZINC000840464592   -0.1100
     25 C25       -14.6465   -2.1477   60.2943 C.ar    1  ZINC000840464592   -0.1200
     26 C26       -15.3473   -1.1191   59.6929 C.ar    1  ZINC000840464592   -0.1200
     27 C27       -14.6686   -0.0384   59.1616 C.ar    1  ZINC000840464592   -0.1200
     28 C28       -13.2893    0.0154   59.2349 C.ar    1  ZINC000840464592   -0.1100
     29 H29        -3.8559    1.8937   50.5927 H       1  ZINC000840464592    0.0500
     30 H30        -4.2479    3.3231   49.6072 H       1  ZINC000840464592    0.0500
     31 H31        -4.6430    3.3030   51.3426 H       1  ZINC000840464592    0.0500
     32 H32        -6.6660    2.9065   49.9647 H       1  ZINC000840464592    0.0600
     33 H33        -5.8789    1.4970   49.2148 H       1  ZINC000840464592    0.0600
     34 H34        -5.6494    0.4671   51.4903 H       1  ZINC000840464592    0.0600
     35 H35        -6.5489    1.8439   52.1714 H       1  ZINC000840464592    0.0600
     36 H36        -8.5015    1.2969   50.7916 H       1  ZINC000840464592    0.0600
     37 H37        -7.6028   -0.0165   49.9944 H       1  ZINC000840464592    0.0600
     38 H38        -8.9829   -1.0141   51.7217 H       1  ZINC000840464592    0.0700
     39 H39        -7.2940   -1.0730   52.2806 H       1  ZINC000840464592    0.0700
     40 H40        -7.6214    0.8448   53.7153 H       1  ZINC000840464592    0.0500
     41 H41        -9.2240    1.1685   53.0118 H       1  ZINC000840464592    0.0500
     42 H42       -10.3183    1.7640   56.4331 H       1  ZINC000840464592    0.0800
     43 H43        -9.6328    2.1029   54.8257 H       1  ZINC000840464592    0.0700
     44 H44       -11.0937    1.0972   54.9764 H       1  ZINC000840464592    0.0800
     45 H45        -8.7629    1.0466   57.5299 H       1  ZINC000840464592    0.1000
     46 H46        -9.7775    1.0005   58.9854 H       1  ZINC000840464592    0.0800
     47 H47        -7.2505   -0.6401   58.5546 H       1  ZINC000840464592    0.0800
     48 H48        -7.3587    0.8473   59.5217 H       1  ZINC000840464592    0.1000
     49 H49        -7.6513   -0.7369   61.1951 H       1  ZINC000840464592    0.0900
     50 H50        -9.3478   -0.4949   60.7083 H       1  ZINC000840464592    0.1000
     51 H51        -7.8117   -2.8959   60.3383 H       1  ZINC000840464592    0.4000
     52 H52       -10.7483   -1.4402   60.8261 H       1  ZINC000840464592    0.0900
     53 H53       -10.7588    0.0812   59.9025 H       1  ZINC000840464592    0.1000
     54 H54       -12.7193   -2.8996   60.8336 H       1  ZINC000840464592    0.1200
     55 H55       -15.1767   -2.9921   60.7094 H       1  ZINC000840464592    0.1200
     56 H56       -16.4252   -1.1599   59.6379 H       1  ZINC000840464592    0.1200
     57 H57       -15.2162    0.7650   58.6914 H       1  ZINC000840464592    0.1200
     58 H58       -12.7590    0.8598   58.8198 H       1  ZINC000840464592    0.1200
@<TRIPOS>BOND
     1     1     2    1
     2     1    29    1
     3     1    30    1
     4     1    31    1
     5     2     3    1
     6     2    32    1
     7     2    33    1
     8     3     4    1
     9     3    34    1
    10     3    35    1
    11     4     5    1
    12     4    36    1
    13     4    37    1
    14     5     6    1
    15     5    38    1
    16     5    39    1
    17     6     7    1
    18     6    40    1
    19     6    41    1
    20     7     8    1
    21     8     9    1
    22     8    10    1
    23     8    11    1
    24    10    42    1
    25    10    43    1
    26    10    44    1
    27    11    12    2
    28    11    13   am
    29    13    20    1
    30    13    14    1
    31    14    15    1
    32    14    45    1
    33    14    46    1
    34    15    16    1
    35    15    47    1
    36    15    48    1
    37    16    17    1
    38    16    49    1
    39    16    50    1
    40    17    18   am
    41    17    51    1
    42    18    19    2
    43    18    20    1
    44    20    21    1
    45    20    22    1
    46    22    23    1
    47    22    52    1
    48    22    53    1
    49    23    28   ar
    50    23    24   ar
    51    24    25   ar
    52    24    54    1
    53    25    26   ar
    54    25    55    1
    55    26    27   ar
    56    26    56    1
    57    27    28   ar
    58    27    57    1
    59    28    58    1
@<TRIPOS>SUBSTRUCTURE
     1 ZINC000840464592        1 TEMP              0 ****  ****    0 ROOT


##########                                Name:    ZINC000469459940
##########                DOCK_Rotatable_Bonds:                   7
##########                         Heavy_Atoms:                  24
##########                    Molecular_Weight:             414.295
##########                DOCK_Rotatable_Bonds:                   7
##########                       Formal_Charge:          -0.0200002
##########                     HBond_Acceptors:                   6
##########                        HBond_Donors:                   1
##########                         Heavy_Atoms:                  24
##########                          Grid_Score:          -34.501945
##########                     Grid_vdw_energy:          -30.167938
##########                      Grid_es_energy:           -4.334007
##########           Internal_energy_repulsive:           10.662515

@<TRIPOS>MOLECULE
ZINC000469459940
 41 42 1 0 0
SMALL
USER_CHARGES


@<TRIPOS>ATOM
      1 C1         -3.3030    3.0505   67.3163 C.3     1  ZINC000469459940   -0.1600
      2 C2         -4.3871    3.7788   68.1133 C.3     1  ZINC000469459940   -0.1200
      3 C3         -5.5653    2.8330   68.3541 C.3     1  ZINC000469459940   -0.1200
      4 C4         -6.1389    2.3802   67.0099 C.3     1  ZINC000469459940   -0.6000
      5 S5         -7.5353    1.2582   67.2954 S.o2    1  ZINC000469459940    2.4900
      6 O6         -7.0835    0.0312   67.8517 O.2     1  ZINC000469459940   -0.9300
      7 O7         -8.6314    1.9610   67.8646 O.2     1  ZINC000469459940   -0.9300
      8 C8         -8.0888    0.8250   65.6796 C.ar    1  ZINC000469459940   -0.6400
      9 C9         -7.2787    0.0646   64.8550 C.ar    1  ZINC000469459940   -0.0300
     10 C10        -7.7058   -0.2778   63.5887 C.ar    1  ZINC000469459940   -0.0800
     11 C11        -8.9584    0.1445   63.1401 C.ar    1  ZINC000469459940   -0.0900
     12 C12        -9.4228   -0.2190   61.7846 C.2     1  ZINC000469459940    0.5600
     13 O13       -10.5004    0.1768   61.3849 O.2     1  ZINC000469459940   -0.5000
     14 N14        -8.6515   -0.9894   60.9921 N.am    1  ZINC000469459940   -0.6700
     15 C15        -9.0911   -1.3333   59.7094 C.ar    1  ZINC000469459940    0.1900
     16 C16        -9.5862   -2.6071   59.4624 C.ar    1  ZINC000469459940   -0.1500
     17 C17       -10.0199   -2.9454   58.1951 C.ar    1  ZINC000469459940   -0.0400
     18 C18        -9.9614   -2.0172   57.1715 C.ar    1  ZINC000469459940   -0.1500
     19 Br19      -10.5560   -2.4845   55.4383 Br      1  ZINC000469459940   -0.0200
     20 C20        -9.4678   -0.7449   57.4141 C.ar    1  ZINC000469459940    0.1500
     21 F21        -9.4115    0.1601   56.4127 F       1  ZINC000469459940   -0.1200
     22 C22        -9.0382   -0.3998   58.6826 C.ar    1  ZINC000469459940   -0.1500
     23 C23        -9.7709    0.9110   63.9773 C.ar    1  ZINC000469459940   -0.1100
     24 C24        -9.3338    1.2420   65.2432 C.ar    1  ZINC000469459940   -0.0300
     25 H25        -2.9619    2.1806   67.8778 H       1  ZINC000469459940    0.0600
     26 H26        -3.7113    2.7274   66.3587 H       1  ZINC000469459940    0.0600
     27 H27        -2.4635    3.7242   67.1447 H       1  ZINC000469459940    0.0600
     28 H28        -3.9788    4.1018   69.0709 H       1  ZINC000469459940    0.0700
     29 H29        -4.7281    4.6485   67.5518 H       1  ZINC000469459940    0.0700
     30 H30        -5.2242    1.9630   68.9151 H       1  ZINC000469459940    0.0800
     31 H31        -6.3374    3.3518   68.9223 H       1  ZINC000469459940    0.0800
     32 H32        -6.4805    3.2501   66.4491 H       1  ZINC000469459940    0.1400
     33 H33        -5.3667    1.8618   66.4415 H       1  ZINC000469459940    0.1400
     34 H34        -6.3098   -0.2615   65.2033 H       1  ZINC000469459940    0.1500
     35 H35        -7.0723   -0.8707   62.9458 H       1  ZINC000469459940    0.1500
     36 H36        -7.7917   -1.3053   61.3111 H       1  ZINC000469459940    0.4200
     37 H37        -9.6319   -3.3331   60.2605 H       1  ZINC000469459940    0.1500
     38 H38       -10.4049   -3.9360   58.0034 H       1  ZINC000469459940    0.1500
     39 H39        -8.6537    0.5914   58.8723 H       1  ZINC000469459940    0.1600
     40 H40       -10.7408    1.2411   63.6361 H       1  ZINC000469459940    0.1400
     41 H41        -9.9613    1.8351   65.8920 H       1  ZINC000469459940    0.1500
@<TRIPOS>BOND
     1     1     2    1
     2     1    25    1
     3     1    26    1
     4     1    27    1
     5     2     3    1
     6     2    28    1
     7     2    29    1
     8     3     4    1
     9     3    30    1
    10     3    31    1
    11     4     5    1
    12     4    32    1
    13     4    33    1
    14     5     6    2
    15     5     7    2
    16     5     8    1
    17     8    24   ar
    18     8     9   ar
    19     9    10   ar
    20     9    34    1
    21    10    11   ar
    22    10    35    1
    23    11    12    1
    24    11    23   ar
    25    12    13    2
    26    12    14   am
    27    14    15    1
    28    14    36    1
    29    15    22   ar
    30    15    16   ar
    31    16    17   ar
    32    16    37    1
    33    17    18   ar
    34    17    38    1
    35    18    19    1
    36    18    20   ar
    37    20    21    1
    38    20    22   ar
    39    22    39    1
    40    23    24   ar
    41    23    40    1
    42    24    41    1
@<TRIPOS>SUBSTRUCTURE
     1 ZINC000469459940        1 TEMP              0 ****  ****    0 ROOT


##########                                Name:    ZINC000033150761
##########                DOCK_Rotatable_Bonds:                   7
##########                         Heavy_Atoms:                  29
##########                    Molecular_Weight:             413.407
##########                DOCK_Rotatable_Bonds:                   7
##########                       Formal_Charge:          0.00999993
##########                     HBond_Acceptors:                  10
##########                        HBond_Donors:                   1
##########                         Heavy_Atoms:                  29
##########                          Grid_Score:          -34.493931
##########                     Grid_vdw_energy:          -34.674614
##########                      Grid_es_energy:            0.180684
##########           Internal_energy_repulsive:            4.467558

@<TRIPOS>MOLECULE
ZINC000033150761
 42 45 1 0 0
SMALL
USER_CHARGES


@<TRIPOS>ATOM
      1 O1         -9.2543    0.6463   51.6997 O.2     1  ZINC000033150761   -0.5000
      2 C2         -8.0889    0.8587   51.9599 C.2     1  ZINC000033150761    0.5200
      3 C3         -7.0555    0.8347   50.8633 C.3     1  ZINC000033150761   -0.1300
      4 C4         -6.5513    2.2563   50.6065 C.3     1  ZINC000033150761   -0.0100
      5 C5         -5.0495    2.2419   50.4824 C.2     1  ZINC000033150761    0.1800
      6 N6         -4.3327    1.3769   49.8091 N.2     1  ZINC000033150761   -0.4400
      7 C7         -3.0469    1.7567   49.9835 C.2     1  ZINC000033150761    0.2200
      8 C8         -1.8467    1.0917   49.4161 C.ar    1  ZINC000033150761    0.1900
      9 C9         -0.5858    1.6396   49.6349 C.ar    1  ZINC000033150761   -0.1300
     10 C10         0.5246    1.0081   49.0995 C.ar    1  ZINC000033150761   -0.0700
     11 C11         0.3353   -0.1513   48.3625 C.ar    1  ZINC000033150761   -0.1500
     12 C12        -0.9469   -0.6401   48.1846 C.ar    1  ZINC000033150761    0.1100
     13 N13        -1.9846   -0.0225   48.7097 N.ar    1  ZINC000033150761   -0.4500
     14 N14        -3.0580    2.8193   50.7448 N.2     1  ZINC000033150761   -0.3600
     15 O15        -4.1988    3.1129   51.0341 O.3     1  ZINC000033150761    0.0900
     16 N16        -7.7188    1.1216   53.2289 N.am    1  ZINC000033150761   -0.6200
     17 C17        -8.6716    1.1437   54.2401 C.2     1  ZINC000033150761    0.2700
     18 N18        -8.7141    0.3288   55.2477 N.2     1  ZINC000033150761   -0.5000
     19 C19        -9.6988    0.4992   56.1186 C.2     1  ZINC000033150761    0.1200
     20 C20        -9.8588   -0.3651   57.3135 C.ar    1  ZINC000033150761    0.0000
     21 C21        -8.8229   -0.4768   58.2388 C.ar    1  ZINC000033150761   -0.0800
     22 C22        -8.9753   -1.2815   59.3498 C.ar    1  ZINC000033150761   -0.1200
     23 C23       -10.1554   -1.9781   59.5468 C.ar    1  ZINC000033150761    0.0700
     24 F24       -10.2999   -2.7644   60.6358 F       1  ZINC000033150761   -0.1300
     25 C25       -11.1907   -1.8703   58.6289 C.ar    1  ZINC000033150761    0.0700
     26 F26       -12.3407   -2.5515   58.8256 F       1  ZINC000033150761   -0.1300
     27 C27       -11.0482   -1.0632   57.5168 C.ar    1  ZINC000033150761   -0.1000
     28 C28       -10.5426    1.5100   55.8443 C.2     1  ZINC000033150761   -0.2800
     29 S29       -10.0056    2.2875   54.3568 S.3     1  ZINC000033150761    0.2200
     30 H30        -6.2205    0.2020   51.1646 H       1  ZINC000033150761    0.1200
     31 H31        -7.5020    0.4374   49.9518 H       1  ZINC000033150761    0.1200
     32 H32        -6.9886    2.6355   49.6829 H       1  ZINC000033150761    0.1300
     33 H33        -6.8412    2.9001   51.4368 H       1  ZINC000033150761    0.1200
     34 H34        -0.4750    2.5445   50.2139 H       1  ZINC000033150761    0.1400
     35 H35         1.5154    1.4098   49.2522 H       1  ZINC000033150761    0.1500
     36 H36         1.1803   -0.6675   47.9313 H       1  ZINC000033150761    0.1400
     37 H37        -1.0982   -1.5427   47.6113 H       1  ZINC000033150761    0.1700
     38 H38        -6.7873    1.2954   53.4363 H       1  ZINC000033150761    0.4300
     39 H39        -7.9015    0.0655   58.0865 H       1  ZINC000033150761    0.1400
     40 H40        -8.1721   -1.3683   60.0667 H       1  ZINC000033150761    0.1500
     41 H41       -11.8537   -0.9791   56.8023 H       1  ZINC000033150761    0.1600
     42 H42       -11.3988    1.7983   56.4360 H       1  ZINC000033150761    0.1800
@<TRIPOS>BOND
     1     1     2    2
     2     2     3    1
     3     2    16   am
     4     3     4    1
     5     3    30    1
     6     3    31    1
     7     4     5    1
     8     4    32    1
     9     4    33    1
    10     5    15    1
    11     5     6    2
    12     6     7    1
    13     7     8    1
    14     7    14    2
    15     8    13   ar
    16     8     9   ar
    17     9    10   ar
    18     9    34    1
    19    10    11   ar
    20    10    35    1
    21    11    12   ar
    22    11    36    1
    23    12    13   ar
    24    12    37    1
    25    14    15    1
    26    16    17    1
    27    16    38    1
    28    17    29    1
    29    17    18    2
    30    18    19    1
    31    19    20    1
    32    19    28    2
    33    20    27   ar
    34    20    21   ar
    35    21    22   ar
    36    21    39    1
    37    22    23   ar
    38    22    40    1
    39    23    24    1
    40    23    25   ar
    41    25    26    1
    42    25    27   ar
    43    27    41    1
    44    28    29    1
    45    28    42    1
@<TRIPOS>SUBSTRUCTURE
     1 ZINC000033150761        1 TEMP              0 ****  ****    0 ROOT


##########                                Name:    ZINC001369071670
##########                DOCK_Rotatable_Bonds:                   8
##########                         Heavy_Atoms:                  24
##########                    Molecular_Weight:             335.366
##########                DOCK_Rotatable_Bonds:                   8
##########                       Formal_Charge:        -2.90573e-07
##########                     HBond_Acceptors:                  10
##########                        HBond_Donors:                   1
##########                         Heavy_Atoms:                  24
##########                          Grid_Score:          -34.456753
##########                     Grid_vdw_energy:          -33.021255
##########                      Grid_es_energy:           -1.435499
##########           Internal_energy_repulsive:            6.466718

@<TRIPOS>MOLECULE
ZINC001369071670
 45 47 1 0 0
SMALL
USER_CHARGES


@<TRIPOS>ATOM
      1 C1        -10.3943   -2.5619   59.5530 C.3     1  ZINC001369071670   -0.0800
      2 C2        -10.3117   -2.6274   58.0497 C.2     1  ZINC001369071670    0.0000
      3 C3         -9.8867   -1.6473   57.2198 C.2     1  ZINC001369071670   -0.2300
      4 C4        -10.0076   -2.2179   55.9259 C.2     1  ZINC001369071670    0.2100
      5 O5         -9.7021   -1.6265   54.7433 O.3     1  ZINC001369071670   -0.2600
      6 C6         -9.2376   -0.2761   54.7940 C.3     1  ZINC001369071670    0.0400
      7 C7         -8.9464    0.2079   53.3969 C.2     1  ZINC001369071670    0.5200
      8 O8         -9.1289   -0.5278   52.4500 O.2     1  ZINC001369071670   -0.5100
      9 N9         -8.4834    1.4581   53.1996 N.am    1  ZINC001369071670   -0.7200
     10 C10        -8.2020    1.9291   51.8412 C.3     1  ZINC001369071670    0.1500
     11 H11        -8.1491    1.0763   51.1645 H       1  ZINC001369071670    0.0900
     12 C12        -9.3179    2.8722   51.3869 C.3     1  ZINC001369071670   -0.1700
     13 C13        -6.8663    2.6752   51.8265 C.3     1  ZINC001369071670   -0.1200
     14 C14        -5.6392    1.7509   51.9242 C.3     1  ZINC001369071670    0.0100
     15 N15        -5.0280    2.6174   50.8922 N.3     1  ZINC001369071670   -0.4800
     16 C16        -4.3277    1.8162   49.8795 C.3     1  ZINC001369071670    0.1000
     17 C17        -2.8438    2.0559   49.9874 C.2     1  ZINC001369071670    0.1900
     18 N18        -2.2523    3.0077   50.6672 N.2     1  ZINC001369071670   -0.3000
     19 N19        -0.9802    2.8771   50.5104 N.2     1  ZINC001369071670   -0.0700
     20 N20        -0.7448    1.8668   49.7482 N.2     1  ZINC001369071670   -0.0900
     21 N21        -1.8684    1.3307   49.4092 N.pl3   1  ZINC001369071670   -0.3000
     22 C22        -2.0491    0.1589   48.5488 C.3     1  ZINC001369071670    0.0800
     23 C23        -6.3673    3.0247   50.4129 C.3     1  ZINC001369071670    0.0200
     24 N24       -10.4712   -3.4263   56.1014 N.2     1  ZINC001369071670   -0.4100
     25 O25       -10.6396   -3.6704   57.2737 O.3     1  ZINC001369071670    0.1000
     26 H26       -10.7701   -3.5099   59.9379 H       1  ZINC001369071670    0.0900
     27 H27        -9.4028   -2.3707   59.9635 H       1  ZINC001369071670    0.1000
     28 H28       -11.0697   -1.7578   59.8451 H       1  ZINC001369071670    0.1000
     29 H29        -9.5365   -0.6596   57.4813 H       1  ZINC001369071670    0.1800
     30 H30       -10.0037    0.3550   55.2448 H       1  ZINC001369071670    0.1000
     31 H31        -8.3279   -0.2270   55.3925 H       1  ZINC001369071670    0.1000
     32 H32        -8.3364    2.0460   53.9569 H       1  ZINC001369071670    0.4000
     33 H33       -10.2695    2.3406   51.3974 H       1  ZINC001369071670    0.0600
     34 H34        -9.3708    3.7250   52.0636 H       1  ZINC001369071670    0.0600
     35 H35        -9.1085    3.2227   50.3763 H       1  ZINC001369071670    0.0700
     36 H36        -6.8412    3.5151   52.5208 H       1  ZINC001369071670    0.1100
     37 H37        -5.1333    1.7930   52.8887 H       1  ZINC001369071670    0.1000
     38 H38        -5.8288    0.7321   51.5861 H       1  ZINC001369071670    0.0800
     39 H39        -4.5379    0.7593   50.0433 H       1  ZINC001369071670    0.1000
     40 H40        -4.6711    2.1053   48.8862 H       1  ZINC001369071670    0.0900
     41 H41        -2.0502   -0.7438   49.1598 H       1  ZINC001369071670    0.1000
     42 H42        -2.9980    0.2400   48.0188 H       1  ZINC001369071670    0.1000
     43 H43        -1.2332    0.1084   47.8277 H       1  ZINC001369071670    0.1100
     44 H44        -6.7699    2.3785   49.6329 H       1  ZINC001369071670    0.0800
     45 H45        -6.4432    4.0846   50.1699 H       1  ZINC001369071670    0.1000
@<TRIPOS>BOND
     1     1     2    1
     2     1    26    1
     3     1    27    1
     4     1    28    1
     5     2    25    1
     6     2     3    2
     7     3     4    1
     8     3    29    1
     9     4     5    1
    10     4    24    2
    11     5     6    1
    12     6     7    1
    13     6    30    1
    14     6    31    1
    15     7     8    2
    16     7     9   am
    17     9    10    1
    18     9    32    1
    19    10    11    1
    20    10    12    1
    21    10    13    1
    22    12    33    1
    23    12    34    1
    24    12    35    1
    25    13    23    1
    26    13    14    1
    27    13    36    1
    28    14    15    1
    29    14    37    1
    30    14    38    1
    31    15    16    1
    32    15    23    1
    33    16    17    1
    34    16    39    1
    35    16    40    1
    36    17    21    1
    37    17    18    2
    38    18    19    1
    39    19    20    2
    40    20    21    1
    41    21    22    1
    42    22    41    1
    43    22    42    1
    44    22    43    1
    45    23    44    1
    46    23    45    1
    47    24    25    1
@<TRIPOS>SUBSTRUCTURE
     1 ZINC001369071670        1 TEMP              0 ****  ****    0 ROOT


##########                                Name:    ZINC000771225867
##########                DOCK_Rotatable_Bonds:                   9
##########                         Heavy_Atoms:                  23
##########                    Molecular_Weight:             355.802
##########                DOCK_Rotatable_Bonds:                   9
##########                       Formal_Charge:        -3.12924e-07
##########                     HBond_Acceptors:                   9
##########                        HBond_Donors:                   3
##########                         Heavy_Atoms:                  23
##########                          Grid_Score:          -34.437874
##########                     Grid_vdw_energy:          -34.133255
##########                      Grid_es_energy:           -0.304619
##########           Internal_energy_repulsive:           13.818623

@<TRIPOS>MOLECULE
ZINC000771225867
 37 38 1 0 0
SMALL
USER_CHARGES


@<TRIPOS>ATOM
      1 C1         -7.6439    1.4974   57.6967 C.3     1  ZINC000771225867    0.0400
      2 O2         -7.4835    1.5567   56.2779 O.3     1  ZINC000771225867   -0.3600
      3 C3         -8.2002    0.6803   55.5431 C.2     1  ZINC000771225867    0.5500
      4 O4         -8.9405   -0.1133   56.0939 O.2     1  ZINC000771225867   -0.4900
      5 C5         -8.0907    0.6843   54.1320 C.2     1  ZINC000771225867   -0.3400
      6 C6         -8.7767   -0.1270   53.2663 C.2     1  ZINC000771225867    0.2700
      7 Cl7        -9.9215   -1.3205   53.7942 Cl      1  ZINC000771225867    0.0400
      8 N8         -8.4912    0.0794   52.0055 N.2     1  ZINC000771225867   -0.5500
      9 C9         -7.6149    1.0044   51.7355 C.2     1  ZINC000771225867    0.3400
     10 N10        -7.2025    1.3482   50.4666 N.pl3   1  ZINC000771225867   -0.6700
     11 C11        -6.7808    2.7216   50.1804 C.3     1  ZINC000771225867    0.1700
     12 C12        -5.3218    2.8806   50.5226 C.ar    1  ZINC000771225867   -0.0800
     13 C13        -4.9374    3.7623   51.5156 C.ar    1  ZINC000771225867   -0.1300
     14 C14        -3.5994    3.9105   51.8319 C.ar    1  ZINC000771225867   -0.0800
     15 C15        -2.6434    3.1776   51.1561 C.ar    1  ZINC000771225867   -0.2000
     16 C16        -3.0266    2.2919   50.1590 C.ar    1  ZINC000771225867    0.1300
     17 O17        -2.0879    1.5693   49.4929 O.3     1  ZINC000771225867   -0.2900
     18 C18        -2.5532    0.4739   48.7022 C.3     1  ZINC000771225867    0.0400
     19 C19        -1.3810   -0.3726   48.2773 C.2     1  ZINC000771225867    0.5200
     20 N20        -0.1449    0.1627   48.2307 N.am    1  ZINC000771225867   -0.8500
     21 O21        -1.5499   -1.5355   47.9773 O.2     1  ZINC000771225867   -0.5200
     22 C22        -4.3698    2.1410   49.8474 C.ar    1  ZINC000771225867   -0.1200
     23 S23        -7.0540    1.7381   53.1735 S.3     1  ZINC000771225867    0.2200
     24 H24        -8.6868    1.6846   57.9526 H       1  ZINC000771225867    0.0600
     25 H25        -7.3538    0.5094   58.0542 H       1  ZINC000771225867    0.0600
     26 H26        -7.0135    2.2530   58.1655 H       1  ZINC000771225867    0.1000
     27 H27        -7.1916    0.6808   49.7627 H       1  ZINC000771225867    0.4200
     28 H28        -6.9310    2.9348   49.1220 H       1  ZINC000771225867    0.0900
     29 H29        -7.3718    3.4153   50.7782 H       1  ZINC000771225867    0.0900
     30 H30        -5.6833    4.3365   52.0449 H       1  ZINC000771225867    0.1300
     31 H31        -3.3016    4.6001   52.6079 H       1  ZINC000771225867    0.1300
     32 H32        -1.5985    3.2940   51.4034 H       1  ZINC000771225867    0.1300
     33 H33        -3.2440   -0.1308   49.2897 H       1  ZINC000771225867    0.1000
     34 H34        -3.0651    0.8551   47.8186 H       1  ZINC000771225867    0.1000
     35 H35         0.6097   -0.3825   47.9584 H       1  ZINC000771225867    0.4000
     36 H36        -0.0101    1.0931   48.4696 H       1  ZINC000771225867    0.4100
     37 H37        -4.6706    1.4523   49.0718 H       1  ZINC000771225867    0.1400
@<TRIPOS>BOND
     1     1     2    1
     2     1    24    1
     3     1    25    1
     4     1    26    1
     5     2     3    1
     6     3     4    2
     7     3     5    1
     8     5    23    1
     9     5     6    2
    10     6     7    1
    11     6     8    1
    12     8     9    2
    13     9    10    1
    14     9    23    1
    15    10    11    1
    16    10    27    1
    17    11    12    1
    18    11    28    1
    19    11    29    1
    20    12    22   ar
    21    12    13   ar
    22    13    14   ar
    23    13    30    1
    24    14    15   ar
    25    14    31    1
    26    15    16   ar
    27    15    32    1
    28    16    17    1
    29    16    22   ar
    30    17    18    1
    31    18    19    1
    32    18    33    1
    33    18    34    1
    34    19    20   am
    35    19    21    2
    36    20    35    1
    37    20    36    1
    38    22    37    1
@<TRIPOS>SUBSTRUCTURE
     1 ZINC000771225867        1 TEMP              0 ****  ****    0 ROOT


##########                                Name:    ZINC000503413572
##########                DOCK_Rotatable_Bonds:                   7
##########                         Heavy_Atoms:                  26
##########                    Molecular_Weight:             355.375
##########                DOCK_Rotatable_Bonds:                   7
##########                       Formal_Charge:        -1.71363e-07
##########                     HBond_Acceptors:                   9
##########                        HBond_Donors:                   1
##########                         Heavy_Atoms:                  26
##########                          Grid_Score:          -34.394371
##########                     Grid_vdw_energy:          -33.478134
##########                      Grid_es_energy:           -0.916239
##########           Internal_energy_repulsive:            7.866557

@<TRIPOS>MOLECULE
ZINC000503413572
 44 47 1 0 0
SMALL
USER_CHARGES


@<TRIPOS>ATOM
      1 C1         -4.2669    1.5294   49.7715 C.3     1  ZINC000503413572   -0.1200
      2 C2         -4.0609    2.5536   50.8576 C.ar    1  ZINC000503413572   -0.0200
      3 C3         -2.8466    3.2001   50.9762 C.ar    1  ZINC000503413572   -0.1400
      4 C4         -2.6569    4.1418   51.9740 C.ar    1  ZINC000503413572    0.1300
      5 F5         -1.4682    4.7736   52.0882 F       1  ZINC000503413572   -0.1300
      6 C6         -3.6843    4.4369   52.8541 C.ar    1  ZINC000503413572   -0.1400
      7 C7         -4.9004    3.7922   52.7385 C.ar    1  ZINC000503413572   -0.0700
      8 C8         -5.0939    2.8520   51.7360 C.ar    1  ZINC000503413572    0.1000
      9 N9         -6.3285    2.1966   51.6167 N.pl3   1  ZINC000503413572   -0.3100
     10 C10        -6.8410    1.2829   52.4690 C.2     1  ZINC000503413572    0.1100
     11 C11        -8.0564    0.9126   51.9667 C.2     1  ZINC000503413572   -0.1000
     12 C12        -8.9765   -0.0691   52.5715 C.2     1  ZINC000503413572    0.6100
     13 O13        -9.7273   -0.7140   51.8653 O.2     1  ZINC000503413572   -0.5300
     14 N14        -8.9850   -0.2510   53.9069 N.am    1  ZINC000503413572   -0.7200
     15 C15        -9.8976   -1.2272   54.5074 C.3     1  ZINC000503413572    0.1100
     16 C16       -10.2468   -0.7901   55.9314 C.3     1  ZINC000503413572    0.1000
     17 N17       -10.2513   -1.9595   56.8139 N.pl3   1  ZINC000503413572   -0.4700
     18 C18       -10.8098   -3.1682   56.5624 C.2     1  ZINC000503413572    0.1500
     19 N19       -10.5880   -3.9226   57.6042 N.2     1  ZINC000503413572   -0.2900
     20 N20        -9.9275   -3.2596   58.4862 N.2     1  ZINC000503413572   -0.2900
     21 C21        -9.6929   -2.0539   58.0448 C.2     1  ZINC000503413572    0.2100
     22 C22        -8.9480   -0.9653   58.7734 C.3     1  ZINC000503413572   -0.1000
     23 C23        -9.3790   -0.6524   60.2077 C.3     1  ZINC000503413572   -0.1500
     24 C24        -8.0592   -1.3812   59.9473 C.3     1  ZINC000503413572   -0.1600
     25 N25        -8.2721    1.5940   50.8284 N.2     1  ZINC000503413572   -0.2000
     26 N26        -7.2710    2.3685   50.5929 N.2     1  ZINC000503413572   -0.0400
     27 H27        -4.7311    2.0045   48.9073 H       1  ZINC000503413572    0.0900
     28 H28        -3.3041    1.1087   49.4814 H       1  ZINC000503413572    0.0800
     29 H29        -4.9146    0.7340   50.1403 H       1  ZINC000503413572    0.0700
     30 H30        -2.0440    2.9709   50.2908 H       1  ZINC000503413572    0.1500
     31 H31        -3.5345    5.1713   53.6318 H       1  ZINC000503413572    0.1500
     32 H32        -5.7013    4.0223   53.4255 H       1  ZINC000503413572    0.1500
     33 H33        -6.3788    0.9152   53.3732 H       1  ZINC000503413572    0.2100
     34 H34        -8.3869    0.2644   54.4705 H       1  ZINC000503413572    0.4100
     35 H35       -10.8086   -1.2871   53.9120 H       1  ZINC000503413572    0.0800
     36 H36        -9.4166   -2.2050   54.5351 H       1  ZINC000503413572    0.0800
     37 H37        -9.5058   -0.0723   56.2833 H       1  ZINC000503413572    0.1100
     38 H38       -11.2333   -0.3265   55.9376 H       1  ZINC000503413572    0.1100
     39 H39       -11.3407   -3.4541   55.6665 H       1  ZINC000503413572    0.2200
     40 H40        -8.6097   -0.1329   58.1563 H       1  ZINC000503413572    0.1200
     41 H41        -9.3244    0.3861   60.5344 H       1  ZINC000503413572    0.1100
     42 H42       -10.2014   -1.2339   60.6243 H       1  ZINC000503413572    0.1100
     43 H43        -8.0133   -2.4423   60.1926 H       1  ZINC000503413572    0.1000
     44 H44        -7.1364   -0.8223   60.1026 H       1  ZINC000503413572    0.1100
@<TRIPOS>BOND
     1     1     2    1
     2     1    27    1
     3     1    28    1
     4     1    29    1
     5     2     8   ar
     6     2     3   ar
     7     3     4   ar
     8     3    30    1
     9     4     5    1
    10     4     6   ar
    11     6     7   ar
    12     6    31    1
    13     7     8   ar
    14     7    32    1
    15     8     9    1
    16     9    26    1
    17     9    10    1
    18    10    11    2
    19    10    33    1
    20    11    12    1
    21    11    25    1
    22    12    13    2
    23    12    14   am
    24    14    15    1
    25    14    34    1
    26    15    16    1
    27    15    35    1
    28    15    36    1
    29    16    17    1
    30    16    37    1
    31    16    38    1
    32    17    21    1
    33    17    18    1
    34    18    19    2
    35    18    39    1
    36    19    20    1
    37    20    21    2
    38    21    22    1
    39    22    24    1
    40    22    23    1
    41    22    40    1
    42    23    24    1
    43    23    41    1
    44    23    42    1
    45    24    43    1
    46    24    44    1
    47    25    26    2
@<TRIPOS>SUBSTRUCTURE
     1 ZINC000503413572        1 TEMP              0 ****  ****    0 ROOT


##########                                Name:    ZINC000506566356
##########                DOCK_Rotatable_Bonds:                  10
##########                         Heavy_Atoms:                  28
##########                    Molecular_Weight:               415.9
##########                DOCK_Rotatable_Bonds:                  10
##########                       Formal_Charge:           0.0199998
##########                     HBond_Acceptors:                   8
##########                        HBond_Donors:                   2
##########                         Heavy_Atoms:                  28
##########                          Grid_Score:          -34.334637
##########                     Grid_vdw_energy:          -33.354183
##########                      Grid_es_energy:           -0.980453
##########           Internal_energy_repulsive:            5.429400

@<TRIPOS>MOLECULE
ZINC000506566356
 46 48 1 0 0
SMALL
USER_CHARGES


@<TRIPOS>ATOM
      1 O1         -8.2380    0.2523   54.8282 O.2     1  ZINC000506566356   -0.5100
      2 C2         -8.9446   -0.0131   53.8778 C.2     1  ZINC000506566356    0.5100
      3 N3         -8.4800    0.1571   52.6242 N.am    1  ZINC000506566356   -0.7000
      4 C4         -7.1241    0.6682   52.4087 C.3     1  ZINC000506566356    0.1200
      5 C5         -7.0980    1.5267   51.1424 C.3     1  ZINC000506566356   -0.0900
      6 C6         -5.7699    2.2318   51.0409 C.ar    1  ZINC000506566356   -0.0700
      7 C7         -5.6292    3.5147   51.5356 C.ar    1  ZINC000506566356   -0.1100
      8 C8         -4.4110    4.1620   51.4432 C.ar    1  ZINC000506566356   -0.1000
      9 C9         -3.3334    3.5269   50.8558 C.ar    1  ZINC000506566356   -0.1100
     10 C10        -3.4738    2.2425   50.3603 C.ar    1  ZINC000506566356   -0.0300
     11 Cl11       -2.1204    1.4437   49.6226 Cl      1  ZINC000506566356   -0.0700
     12 C12        -4.6912    1.5932   50.4581 C.ar    1  ZINC000506566356   -0.1000
     13 C13       -10.3268   -0.5342   54.0975 C.2     1  ZINC000506566356    0.5100
     14 O14       -10.9940   -0.9024   53.1526 O.2     1  ZINC000506566356   -0.5000
     15 N15       -10.8335   -0.5956   55.3449 N.am    1  ZINC000506566356   -0.6300
     16 C16       -12.1281   -1.0836   55.5508 C.ar    1  ZINC000506566356    0.1100
     17 C17       -13.2243   -0.3552   55.1115 C.ar    1  ZINC000506566356   -0.0800
     18 C18       -14.5024   -0.8397   55.3162 C.ar    1  ZINC000506566356   -0.1400
     19 C19       -14.6925   -2.0493   55.9581 C.ar    1  ZINC000506566356   -0.0900
     20 C20       -13.6052   -2.7810   56.3994 C.ar    1  ZINC000506566356   -0.1900
     21 C21       -12.3205   -2.3060   56.1929 C.ar    1  ZINC000506566356    0.1200
     22 O22       -11.2505   -3.0241   56.6262 O.3     1  ZINC000506566356   -0.3100
     23 C23       -11.2184   -3.3680   58.0128 C.3     1  ZINC000506566356    0.1400
     24 C24        -9.9805   -2.7870   58.6460 C.2     1  ZINC000506566356    0.0500
     25 C25        -9.8994   -1.5120   59.0380 C.2     1  ZINC000506566356   -0.2300
     26 S26        -8.2945   -1.2548   59.7183 S.3     1  ZINC000506566356    0.1400
     27 C27        -7.8922   -2.8873   59.4080 C.2     1  ZINC000506566356    0.0200
     28 N28        -8.8912   -3.4960   58.8636 N.2     1  ZINC000506566356   -0.4700
     29 H29        -9.0434   -0.0586   51.8646 H       1  ZINC000506566356    0.4200
     30 H30        -6.8236    1.2733   53.2641 H       1  ZINC000506566356    0.0800
     31 H31        -6.4344   -0.1681   52.2949 H       1  ZINC000506566356    0.0800
     32 H32        -7.2391    0.8901   50.2689 H       1  ZINC000506566356    0.0900
     33 H33        -7.8987    2.2648   51.1873 H       1  ZINC000506566356    0.0900
     34 H34        -6.4713    4.0118   51.9942 H       1  ZINC000506566356    0.1300
     35 H35        -4.3016    5.1645   51.8300 H       1  ZINC000506566356    0.1300
     36 H36        -2.3821    4.0329   50.7830 H       1  ZINC000506566356    0.1300
     37 H37        -4.8013    0.5908   50.0716 H       1  ZINC000506566356    0.1300
     38 H38       -10.3003   -0.3014   56.1001 H       1  ZINC000506566356    0.4300
     39 H39       -13.0788    0.5901   54.6100 H       1  ZINC000506566356    0.1500
     40 H40       -15.3549   -0.2717   54.9741 H       1  ZINC000506566356    0.1300
     41 H41       -15.6932   -2.4238   56.1158 H       1  ZINC000506566356    0.1300
     42 H42       -13.7575   -3.7252   56.9012 H       1  ZINC000506566356    0.1400
     43 H43       -12.1026   -2.9657   58.5074 H       1  ZINC000506566356    0.0900
     44 H44       -11.2053   -4.4529   58.1180 H       1  ZINC000506566356    0.0900
     45 H45       -10.6797   -0.7702   58.9529 H       1  ZINC000506566356    0.1800
     46 H46        -6.9410   -3.3441   59.6385 H       1  ZINC000506566356    0.2100
@<TRIPOS>BOND
     1     1     2    2
     2     2     3   am
     3     2    13    1
     4     3     4    1
     5     3    29    1
     6     4     5    1
     7     4    30    1
     8     4    31    1
     9     5     6    1
    10     5    32    1
    11     5    33    1
    12     6    12   ar
    13     6     7   ar
    14     7     8   ar
    15     7    34    1
    16     8     9   ar
    17     8    35    1
    18     9    10   ar
    19     9    36    1
    20    10    11    1
    21    10    12   ar
    22    12    37    1
    23    13    14    2
    24    13    15   am
    25    15    16    1
    26    15    38    1
    27    16    21   ar
    28    16    17   ar
    29    17    18   ar
    30    17    39    1
    31    18    19   ar
    32    18    40    1
    33    19    20   ar
    34    19    41    1
    35    20    21   ar
    36    20    42    1
    37    21    22    1
    38    22    23    1
    39    23    24    1
    40    23    43    1
    41    23    44    1
    42    24    28    1
    43    24    25    2
    44    25    26    1
    45    25    45    1
    46    26    27    1
    47    27    28    2
    48    27    46    1
@<TRIPOS>SUBSTRUCTURE
     1 ZINC000506566356        1 TEMP              0 ****  ****    0 ROOT


##########                                Name:    ZINC000599797189
##########                DOCK_Rotatable_Bonds:                  13
##########                         Heavy_Atoms:                  23
##########                    Molecular_Weight:             329.313
##########                DOCK_Rotatable_Bonds:                  13
##########                       Formal_Charge:          0.00999949
##########                     HBond_Acceptors:                  11
##########                        HBond_Donors:                   3
##########                         Heavy_Atoms:                  23
##########                          Grid_Score:          -34.308033
##########                     Grid_vdw_energy:          -33.938793
##########                      Grid_es_energy:           -0.369238
##########           Internal_energy_repulsive:           12.231924

@<TRIPOS>MOLECULE
ZINC000599797189
 42 42 1 0 0
SMALL
USER_CHARGES


@<TRIPOS>ATOM
      1 C1         -2.0486   -0.1998   48.2880 C.3     1  ZINC000599797189   -0.1500
      2 C2         -2.1554    1.0631   49.1452 C.3     1  ZINC000599797189    0.0600
      3 O3         -3.5540    1.3577   49.4009 O.3     1  ZINC000599797189   -0.3600
      4 C4         -3.8204    2.4010   50.2022 C.2     1  ZINC000599797189    0.4500
      5 O5         -2.9533    2.8560   50.9099 O.2     1  ZINC000599797189   -0.4800
      6 C6         -5.2011    3.0048   50.2192 C.3     1  ZINC000599797189    0.1500
      7 N7         -6.1611    2.0143   50.7128 N.pl3   1  ZINC000599797189   -0.3800
      8 C8         -7.0853    1.3600   49.9894 C.2     1  ZINC000599797189    0.2800
      9 N9         -7.7440    0.5636   50.7921 N.2     1  ZINC000599797189   -0.5100
     10 C10        -7.2693    0.6814   52.0357 C.2     1  ZINC000599797189    0.4700
     11 N11        -7.7338   -0.0184   53.1543 N.am    1  ZINC000599797189   -0.6400
     12 C12        -9.0524   -0.0464   53.4320 C.2     1  ZINC000599797189    0.7100
     13 O13        -9.8380    0.5380   52.7112 O.2     1  ZINC000599797189   -0.5300
     14 N14        -9.5000   -0.7220   54.5089 N.am    1  ZINC000599797189   -0.7300
     15 C15       -10.9334   -0.7538   54.8098 C.3     1  ZINC000599797189    0.1100
     16 C16       -11.2433   -1.9674   55.6884 C.3     1  ZINC000599797189    0.1100
     17 H17       -12.3232   -2.0826   55.7812 H       1  ZINC000599797189    0.1200
     18 O18       -10.6884   -3.1415   55.0918 O.3     1  ZINC000599797189   -0.5400
     19 C19       -10.6313   -1.7624   57.0757 C.3     1  ZINC000599797189   -0.1500
     20 C20       -11.0780   -2.8730   57.9910 C.2     1  ZINC000599797189    0.4600
     21 O21       -12.1018   -3.4717   57.7595 O.2     1  ZINC000599797189   -0.4900
     22 O22       -10.3388   -3.1972   59.0634 O.3     1  ZINC000599797189   -0.3600
     23 C23        -9.1347   -2.4189   59.2936 C.3     1  ZINC000599797189    0.0400
     24 N24        -6.2929    1.5572   52.0341 N.2     1  ZINC000599797189   -0.3200
     25 H25        -0.9987   -0.4209   48.0960 H       1  ZINC000599797189    0.0800
     26 H26        -2.5057   -1.0368   48.8157 H       1  ZINC000599797189    0.0700
     27 H27        -2.5655   -0.0412   47.3415 H       1  ZINC000599797189    0.0700
     28 H28        -1.6385    0.9045   50.0917 H       1  ZINC000599797189    0.0700
     29 H29        -1.6983    1.9001   48.6174 H       1  ZINC000599797189    0.0700
     30 H30        -5.2086    3.8759   50.8742 H       1  ZINC000599797189    0.1500
     31 H31        -5.4779    3.3071   49.2093 H       1  ZINC000599797189    0.1300
     32 H32        -7.2553    1.4722   48.9288 H       1  ZINC000599797189    0.2300
     33 H33        -7.1070   -0.4837   53.7300 H       1  ZINC000599797189    0.4200
     34 H34        -8.8732   -1.1873   55.0846 H       1  ZINC000599797189    0.4000
     35 H35       -11.2143    0.1578   55.3372 H       1  ZINC000599797189    0.0800
     36 H36       -11.4984   -0.8245   53.8803 H       1  ZINC000599797189    0.0800
     37 H37        -9.7327   -3.0972   54.9515 H       1  ZINC000599797189    0.3800
     38 H38        -9.5441   -1.7708   56.9980 H       1  ZINC000599797189    0.1200
     39 H39       -10.9594   -0.8046   57.4796 H       1  ZINC000599797189    0.1200
     40 H40        -8.4680   -2.5191   58.4372 H       1  ZINC000599797189    0.0600
     41 H41        -9.4000   -1.3701   59.4270 H       1  ZINC000599797189    0.0600
     42 H42        -8.6324   -2.7834   60.1898 H       1  ZINC000599797189    0.1000
@<TRIPOS>BOND
     1     1     2    1
     2     1    25    1
     3     1    26    1
     4     1    27    1
     5     2     3    1
     6     2    28    1
     7     2    29    1
     8     3     4    1
     9     4     5    2
    10     4     6    1
    11     6     7    1
    12     6    30    1
    13     6    31    1
    14     7    24    1
    15     7     8    1
    16     8     9    2
    17     8    32    1
    18     9    10    1
    19    10    11    1
    20    10    24    2
    21    11    12   am
    22    11    33    1
    23    12    13    2
    24    12    14   am
    25    14    15    1
    26    14    34    1
    27    15    16    1
    28    15    35    1
    29    15    36    1
    30    16    17    1
    31    16    18    1
    32    16    19    1
    33    18    37    1
    34    19    20    1
    35    19    38    1
    36    19    39    1
    37    20    21    2
    38    20    22    1
    39    22    23    1
    40    23    40    1
    41    23    41    1
    42    23    42    1
@<TRIPOS>SUBSTRUCTURE
     1 ZINC000599797189        1 TEMP              0 ****  ****    0 ROOT


##########                                Name:    ZINC000541252362
##########                DOCK_Rotatable_Bonds:                   5
##########                         Heavy_Atoms:                  27
##########                    Molecular_Weight:             401.254
##########                DOCK_Rotatable_Bonds:                   5
##########                       Formal_Charge:          -0.0199999
##########                     HBond_Acceptors:                   9
##########                        HBond_Donors:                   1
##########                         Heavy_Atoms:                  27
##########                          Grid_Score:          -34.307148
##########                     Grid_vdw_energy:          -33.816387
##########                      Grid_es_energy:           -0.490761
##########           Internal_energy_repulsive:            8.383617

@<TRIPOS>MOLECULE
ZINC000541252362
 41 44 1 0 0
SMALL
USER_CHARGES


@<TRIPOS>ATOM
      1 C1         -6.5361    4.0297   59.6091 C.3     1  ZINC000541252362    0.1000
      2 N2         -7.1326    2.9455   58.8247 N.pl3   1  ZINC000541252362   -0.3800
      3 C3         -7.8786    1.9291   59.2938 C.2     1  ZINC000541252362    0.2600
      4 N4         -8.2234    1.1737   58.2848 N.2     1  ZINC000541252362   -0.5300
      5 C5         -7.7168    1.6740   57.1499 C.2     1  ZINC000541252362    0.2700
      6 C6         -7.8926    1.0946   55.7949 C.ar    1  ZINC000541252362    0.0000
      7 C7         -8.6397   -0.0692   55.6243 C.ar    1  ZINC000541252362   -0.1000
      8 C8         -8.8027   -0.6070   54.3630 C.ar    1  ZINC000541252362   -0.1000
      9 C9         -8.2264    0.0054   53.2666 C.ar    1  ZINC000541252362   -0.1300
     10 C10        -7.4797    1.1664   53.4275 C.ar    1  ZINC000541252362    0.1400
     11 N11        -6.8974    1.7839   52.3148 N.am    1  ZINC000541252362   -0.6800
     12 C12        -7.6320    2.0086   51.2075 C.2     1  ZINC000541252362    0.5100
     13 O13        -8.7978    1.6755   51.1751 O.2     1  ZINC000541252362   -0.4900
     14 C14        -7.0050    2.6736   50.0093 C.3     1  ZINC000541252362   -0.0600
     15 C15        -5.5040    2.6111   50.1283 C.2     1  ZINC000541252362    0.0700
     16 C16        -4.7402    3.4142   50.9013 C.2     1  ZINC000541252362   -0.0700
     17 N17        -3.4396    3.0295   50.7224 N.pl3   1  ZINC000541252362   -0.3500
     18 C18        -2.2619    3.4835   51.2445 C.2     1  ZINC000541252362    0.0700
     19 C19        -1.0890    2.9146   50.8925 C.2     1  ZINC000541252362   -0.0500
     20 Cl20        0.3962    3.5073   51.5681 Cl      1  ZINC000541252362   -0.0200
     21 C21        -1.0654    1.8443   49.9818 C.2     1  ZINC000541252362   -0.0900
     22 C22        -2.2321    1.3823   49.4546 C.2     1  ZINC000541252362    0.0200
     23 Cl23       -2.2228    0.0608   48.3288 Cl      1  ZINC000541252362   -0.0100
     24 C24        -3.4485    1.9877   49.8323 C.2     1  ZINC000541252362    0.2200
     25 N25        -4.7075    1.7492   49.4919 N.2     1  ZINC000541252362   -0.4300
     26 C26        -7.3162    1.7156   54.6900 C.ar    1  ZINC000541252362   -0.0800
     27 N27        -7.0431    2.7667   57.4347 N.2     1  ZINC000541252362   -0.3100
     28 H28        -7.2400    4.8593   59.6762 H       1  ZINC000541252362    0.0800
     29 H29        -6.3041    3.6682   60.6108 H       1  ZINC000541252362    0.0900
     30 H30        -5.6207    4.3681   59.1238 H       1  ZINC000541252362    0.0900
     31 H31        -8.1463    1.7653   60.3272 H       1  ZINC000541252362    0.2200
     32 H32        -9.0910   -0.5511   56.4791 H       1  ZINC000541252362    0.1300
     33 H33        -9.3822   -1.5091   54.2330 H       1  ZINC000541252362    0.1300
     34 H34        -8.3562   -0.4194   52.2822 H       1  ZINC000541252362    0.1300
     35 H35        -5.9651    2.0502   52.3407 H       1  ZINC000541252362    0.4100
     36 H36        -7.3193    2.1581   49.1018 H       1  ZINC000541252362    0.1200
     37 H37        -7.3229    3.7153   49.9640 H       1  ZINC000541252362    0.1200
     38 H38        -5.0909    4.2111   51.5404 H       1  ZINC000541252362    0.1900
     39 H39        -2.2689    4.3054   51.9451 H       1  ZINC000541252362    0.1800
     40 H40        -0.1261    1.3910   49.7014 H       1  ZINC000541252362    0.1600
     41 H41        -6.7366    2.6180   54.8172 H       1  ZINC000541252362    0.1500
@<TRIPOS>BOND
     1     1     2    1
     2     1    28    1
     3     1    29    1
     4     1    30    1
     5     2    27    1
     6     2     3    1
     7     3     4    2
     8     3    31    1
     9     4     5    1
    10     5     6    1
    11     5    27    2
    12     6    26   ar
    13     6     7   ar
    14     7     8   ar
    15     7    32    1
    16     8     9   ar
    17     8    33    1
    18     9    10   ar
    19     9    34    1
    20    10    11    1
    21    10    26   ar
    22    11    12   am
    23    11    35    1
    24    12    13    2
    25    12    14    1
    26    14    15    1
    27    14    36    1
    28    14    37    1
    29    15    25    1
    30    15    16    2
    31    16    17    1
    32    16    38    1
    33    17    24    1
    34    17    18    1
    35    18    19    2
    36    18    39    1
    37    19    20    1
    38    19    21    1
    39    21    22    2
    40    21    40    1
    41    22    23    1
    42    22    24    1
    43    24    25    2
    44    26    41    1
@<TRIPOS>SUBSTRUCTURE
     1 ZINC000541252362        1 TEMP              0 ****  ****    0 ROOT


##########                                Name:    ZINC000762187039
##########                DOCK_Rotatable_Bonds:                   9
##########                         Heavy_Atoms:                  25
##########                    Molecular_Weight:             354.473
##########                DOCK_Rotatable_Bonds:                   9
##########                       Formal_Charge:        -1.78814e-07
##########                     HBond_Acceptors:                   5
##########                        HBond_Donors:                   1
##########                         Heavy_Atoms:                  25
##########                          Grid_Score:          -34.295914
##########                     Grid_vdw_energy:          -33.910614
##########                      Grid_es_energy:           -0.385299
##########           Internal_energy_repulsive:            5.073900

@<TRIPOS>MOLECULE
ZINC000762187039
 47 49 1 0 0
SMALL
USER_CHARGES


@<TRIPOS>ATOM
      1 C1         -8.6057   -0.1188   60.5518 C.3     1  ZINC000762187039   -0.0800
      2 C2         -9.0971   -1.0448   59.4690 C.2     1  ZINC000762187039    0.0500
      3 N3         -9.3981   -0.6824   58.2678 N.2     1  ZINC000762187039   -0.4700
      4 C4         -9.8131   -1.6225   57.4428 C.2     1  ZINC000762187039    0.0700
      5 C5        -10.1971   -1.3409   56.0131 C.3     1  ZINC000762187039   -0.0300
      6 C6         -9.1652   -0.4034   55.3829 C.3     1  ZINC000762187039   -0.1300
      7 C7         -9.4052   -0.3178   53.8976 C.2     1  ZINC000762187039    0.5200
      8 O8        -10.4862   -0.6217   53.4395 O.2     1  ZINC000762187039   -0.5400
      9 N9         -8.4184    0.0965   53.0783 N.am    1  ZINC000762187039   -0.7300
     10 C10        -8.6511    0.1782   51.6343 C.3     1  ZINC000762187039    0.1200
     11 C11        -7.3215    0.0212   50.8937 C.3     1  ZINC000762187039   -0.1300
     12 C12        -6.4509    1.2547   51.1415 C.3     1  ZINC000762187039    0.0600
     13 O13        -5.6089    1.4788   50.0089 O.3     1  ZINC000762187039   -0.3100
     14 C14        -4.3562    1.9447   50.2541 C.ar    1  ZINC000762187039    0.1300
     15 C15        -4.1710    2.9658   51.1909 C.ar    1  ZINC000762187039   -0.1900
     16 C16        -2.9295    3.4531   51.4580 C.ar    1  ZINC000762187039   -0.0600
     17 C17        -1.8140    2.9251   50.7852 C.ar    1  ZINC000762187039   -0.0800
     18 C18        -0.5173    3.4046   51.0371 C.ar    1  ZINC000762187039   -0.0900
     19 C19         0.5404    2.8702   50.3678 C.ar    1  ZINC000762187039   -0.1300
     20 C20         0.3585    1.8519   49.4336 C.ar    1  ZINC000762187039   -0.1000
     21 C21        -0.8822    1.3624   49.1635 C.ar    1  ZINC000762187039   -0.1200
     22 C22        -1.9993    1.8893   49.8351 C.ar    1  ZINC000762187039   -0.0100
     23 C23        -3.2936    1.4055   49.5861 C.ar    1  ZINC000762187039   -0.1500
     24 C24        -9.8649   -2.8461   57.9778 C.2     1  ZINC000762187039   -0.2600
     25 S25        -9.3295   -2.7287   59.6524 S.3     1  ZINC000762187039    0.1200
     26 H26        -8.4240   -0.6892   61.4627 H       1  ZINC000762187039    0.0800
     27 H27        -7.6792    0.3569   60.2302 H       1  ZINC000762187039    0.0900
     28 H28        -9.3584    0.6453   60.7456 H       1  ZINC000762187039    0.0900
     29 H29       -10.2275   -2.2761   55.4540 H       1  ZINC000762187039    0.0900
     30 H30       -11.1798   -0.8698   55.9868 H       1  ZINC000762187039    0.0900
     31 H31        -9.2588    0.5890   55.8239 H       1  ZINC000762187039    0.0900
     32 H32        -8.1628   -0.7899   55.5673 H       1  ZINC000762187039    0.1000
     33 H33        -7.5542    0.3407   53.4449 H       1  ZINC000762187039    0.4000
     34 H34        -9.3322   -0.6168   51.3305 H       1  ZINC000762187039    0.0700
     35 H35        -9.0904    1.1456   51.3911 H       1  ZINC000762187039    0.0700
     36 H36        -6.8054   -0.8670   51.2582 H       1  ZINC000762187039    0.0800
     37 H37        -7.5107   -0.0813   49.8251 H       1  ZINC000762187039    0.0800
     38 H38        -7.0892    2.1244   51.2975 H       1  ZINC000762187039    0.0700
     39 H39        -5.8348    1.0928   52.0260 H       1  ZINC000762187039    0.0700
     40 H40        -5.0259    3.3738   51.7097 H       1  ZINC000762187039    0.1300
     41 H41        -2.8014    4.2425   52.1837 H       1  ZINC000762187039    0.1300
     42 H42        -0.3608    4.1935   51.7580 H       1  ZINC000762187039    0.1300
     43 H43         1.5358    3.2410   50.5632 H       1  ZINC000762187039    0.1200
     44 H44         1.2149    1.4456   48.9161 H       1  ZINC000762187039    0.1200
     45 H45        -1.0081    0.5732   48.4371 H       1  ZINC000762187039    0.1300
     46 H46        -3.4487    0.6140   48.8678 H       1  ZINC000762187039    0.1300
     47 H47       -10.1762   -3.7480   57.4720 H       1  ZINC000762187039    0.1800
@<TRIPOS>BOND
     1     1     2    1
     2     1    26    1
     3     1    27    1
     4     1    28    1
     5     2    25    1
     6     2     3    2
     7     3     4    1
     8     4     5    1
     9     4    24    2
    10     5     6    1
    11     5    29    1
    12     5    30    1
    13     6     7    1
    14     6    31    1
    15     6    32    1
    16     7     8    2
    17     7     9   am
    18     9    10    1
    19     9    33    1
    20    10    11    1
    21    10    34    1
    22    10    35    1
    23    11    12    1
    24    11    36    1
    25    11    37    1
    26    12    13    1
    27    12    38    1
    28    12    39    1
    29    13    14    1
    30    14    23   ar
    31    14    15   ar
    32    15    16   ar
    33    15    40    1
    34    16    17   ar
    35    16    41    1
    36    17    22   ar
    37    17    18   ar
    38    18    19   ar
    39    18    42    1
    40    19    20   ar
    41    19    43    1
    42    20    21   ar
    43    20    44    1
    44    21    22   ar
    45    21    45    1
    46    22    23   ar
    47    23    46    1
    48    24    25    1
    49    24    47    1
@<TRIPOS>SUBSTRUCTURE
     1 ZINC000762187039        1 TEMP              0 ****  ****    0 ROOT


##########                                Name:    ZINC000437192871
##########                DOCK_Rotatable_Bonds:                   9
##########                         Heavy_Atoms:                  28
##########                    Molecular_Weight:             423.298
##########                DOCK_Rotatable_Bonds:                   9
##########                       Formal_Charge:         -8.9407e-08
##########                     HBond_Acceptors:                   9
##########                        HBond_Donors:                   1
##########                         Heavy_Atoms:                  28
##########                          Grid_Score:          -34.271606
##########                     Grid_vdw_energy:          -33.496605
##########                      Grid_es_energy:           -0.775001
##########           Internal_energy_repulsive:           14.537555

@<TRIPOS>MOLECULE
ZINC000437192871
 48 50 1 0 0
SMALL
USER_CHARGES


@<TRIPOS>ATOM
      1 C1         -8.4668    0.0054   62.5551 C.3     1  ZINC000437192871   -0.1700
      2 C2         -8.6389    0.4737   61.1086 C.3     1  ZINC000437192871    0.1300
      3 N3         -9.0991   -0.6466   60.2842 N.pl3   1  ZINC000437192871   -0.3600
      4 C4        -10.3843   -0.9691   60.0290 C.2     1  ZINC000437192871    0.0700
      5 C5        -10.3848   -2.0622   59.2315 C.2     1  ZINC000437192871   -0.2700
      6 C6        -11.6035   -2.7687   58.6961 C.3     1  ZINC000437192871    0.1900
      7 N7        -12.1138   -2.0453   57.5288 N.am    1  ZINC000437192871   -0.6000
      8 C8        -11.1910   -1.3049   56.6648 C.3     1  ZINC000437192871    0.1100
      9 C9        -10.3650   -2.2915   55.8369 C.3     1  ZINC000437192871    0.0600
     10 O10       -11.2332   -3.0448   54.9880 O.3     1  ZINC000437192871   -0.5600
     11 C11       -13.4323   -2.0611   57.2497 C.2     1  ZINC000437192871    0.6000
     12 O12       -13.8560   -1.4605   56.2808 O.2     1  ZINC000437192871   -0.5000
     13 C13       -14.3599   -2.8056   58.1183 C.2     1  ZINC000437192871   -0.2200
     14 C14       -14.8119   -4.0938   57.9823 C.2     1  ZINC000437192871    0.0100
     15 C15       -14.4531   -5.0636   56.8859 C.3     1  ZINC000437192871   -0.0800
     16 O16       -15.6314   -4.3203   59.0115 O.3     1  ZINC000437192871    0.1100
     17 N17       -15.7469   -3.3728   59.7494 N.2     1  ZINC000437192871   -0.3200
     18 C18       -15.0289   -2.3516   59.3556 C.2     1  ZINC000437192871    0.0800
     19 C19       -14.9178   -1.0235   60.0054 C.ar    1  ZINC000437192871   -0.0200
     20 C20       -13.9195   -0.7879   60.9488 C.ar    1  ZINC000437192871   -0.0700
     21 C21       -13.8199    0.4499   61.5504 C.ar    1  ZINC000437192871   -0.1000
     22 C22       -14.7094    1.4578   61.2186 C.ar    1  ZINC000437192871   -0.0100
     23 Cl23      -14.5774    3.0127   61.9793 Cl      1  ZINC000437192871   -0.0500
     24 C24       -15.7033    1.2302   60.2823 C.ar    1  ZINC000437192871   -0.1100
     25 C25       -15.8087   -0.0032   59.6703 C.ar    1  ZINC000437192871    0.0000
     26 Cl26      -17.0549   -0.2878   58.4957 Cl      1  ZINC000437192871   -0.0300
     27 C27        -9.0541   -2.4202   58.9912 C.2     1  ZINC000437192871    0.0600
     28 N28        -8.2825   -1.5687   59.6169 N.2     1  ZINC000437192871   -0.2900
     29 H29        -8.1245    0.8389   63.1684 H       1  ZINC000437192871    0.0800
     30 H30        -9.4216   -0.3576   62.9356 H       1  ZINC000437192871    0.0600
     31 H31        -7.7317   -0.7986   62.5916 H       1  ZINC000437192871    0.0700
     32 H32        -9.3740    1.2777   61.0721 H       1  ZINC000437192871    0.1000
     33 H33        -7.6842    0.8366   60.7282 H       1  ZINC000437192871    0.0900
     34 H34       -11.2564   -0.4481   60.3957 H       1  ZINC000437192871    0.1600
     35 H35       -11.3361   -3.7847   58.4056 H       1  ZINC000437192871    0.0900
     36 H36       -12.3725   -2.8018   59.4678 H       1  ZINC000437192871    0.0800
     37 H37       -11.7591   -0.6569   55.9973 H       1  ZINC000437192871    0.1000
     38 H38       -10.5248   -0.6993   57.2793 H       1  ZINC000437192871    0.1000
     39 H39        -9.6473   -1.7424   55.2273 H       1  ZINC000437192871    0.0600
     40 H40        -9.8318   -2.9686   56.5042 H       1  ZINC000437192871    0.0500
     41 H41       -10.7810   -3.7163   54.4593 H       1  ZINC000437192871    0.3800
     42 H42       -13.6298   -5.6970   57.2163 H       1  ZINC000437192871    0.1000
     43 H43       -15.3181   -5.6843   56.6524 H       1  ZINC000437192871    0.0900
     44 H44       -14.1516   -4.5108   55.9961 H       1  ZINC000437192871    0.0900
     45 H45       -13.2251   -1.5731   61.2090 H       1  ZINC000437192871    0.1600
     46 H46       -13.0466    0.6329   62.2818 H       1  ZINC000437192871    0.1500
     47 H47       -16.3946    2.0196   60.0270 H       1  ZINC000437192871    0.1500
     48 H48        -8.7211   -3.2526   58.3892 H       1  ZINC000437192871    0.1800
@<TRIPOS>BOND
     1     1     2    1
     2     1    29    1
     3     1    30    1
     4     1    31    1
     5     2     3    1
     6     2    32    1
     7     2    33    1
     8     3    28    1
     9     3     4    1
    10     4     5    2
    11     4    34    1
    12     5     6    1
    13     5    27    1
    14     6     7    1
    15     6    35    1
    16     6    36    1
    17     7     8    1
    18     7    11   am
    19     8     9    1
    20     8    37    1
    21     8    38    1
    22     9    10    1
    23     9    39    1
    24     9    40    1
    25    10    41    1
    26    11    12    2
    27    11    13    1
    28    13    18    1
    29    13    14    2
    30    14    15    1
    31    14    16    1
    32    15    42    1
    33    15    43    1
    34    15    44    1
    35    16    17    1
    36    17    18    2
    37    18    19    1
    38    19    25   ar
    39    19    20   ar
    40    20    21   ar
    41    20    45    1
    42    21    22   ar
    43    21    46    1
    44    22    23    1
    45    22    24   ar
    46    24    25   ar
    47    24    47    1
    48    25    26    1
    49    27    28    2
    50    27    48    1
@<TRIPOS>SUBSTRUCTURE
     1 ZINC000437192871        1 TEMP              0 ****  ****    0 ROOT


##########                                Name:    ZINC000263872566
##########                DOCK_Rotatable_Bonds:                   9
##########                         Heavy_Atoms:                  26
##########                    Molecular_Weight:             362.469
##########                DOCK_Rotatable_Bonds:                   9
##########                       Formal_Charge:           0.0300001
##########                     HBond_Acceptors:                   6
##########                        HBond_Donors:                   2
##########                         Heavy_Atoms:                  26
##########                          Grid_Score:          -34.262146
##########                     Grid_vdw_energy:          -32.223450
##########                      Grid_es_energy:           -2.038695
##########           Internal_energy_repulsive:           21.866510

@<TRIPOS>MOLECULE
ZINC000263872566
 56 57 1 0 0
SMALL
USER_CHARGES


@<TRIPOS>ATOM
      1 C1         -8.5148    0.5892   64.8682 C.3     1  ZINC000263872566   -0.1800
      2 C2         -9.4464    1.2809   63.8709 C.3     1  ZINC000263872566    0.1400
      3 H3        -10.4499    1.3407   64.2923 H       1  ZINC000263872566    0.0700
      4 O4         -8.9631    2.5987   63.6028 O.3     1  ZINC000263872566   -0.5600
      5 C5         -9.4863    0.4899   62.5888 C.ar    1  ZINC000263872566   -0.0800
      6 C6        -10.6704    0.3739   61.8849 C.ar    1  ZINC000263872566   -0.0900
      7 C7        -10.7072   -0.3517   60.7089 C.ar    1  ZINC000263872566   -0.1000
      8 C8         -9.5597   -0.9608   60.2365 C.ar    1  ZINC000263872566   -0.1100
      9 C9         -9.5998   -1.7521   58.9545 C.3     1  ZINC000263872566    0.1800
     10 N10        -9.3326   -0.8616   57.8224 N.am    1  ZINC000263872566   -0.7400
     11 C11        -9.9395   -1.0765   56.6383 C.2     1  ZINC000263872566    0.7100
     12 O12       -10.7086   -2.0093   56.5097 O.2     1  ZINC000263872566   -0.5900
     13 N13        -9.6937   -0.2572   55.5966 N.am    1  ZINC000263872566   -0.6300
     14 C14        -8.7622    0.8707   55.7349 C.3     1  ZINC000263872566    0.1100
     15 C15        -7.7079    0.7779   54.6275 C.3     1  ZINC000263872566   -0.1200
     16 C16        -8.4068    0.7029   53.2681 C.3     1  ZINC000263872566   -0.0800
     17 C17        -7.3721    0.6459   52.1740 C.2     1  ZINC000263872566    0.4700
     18 O18        -6.3784   -0.0266   52.3166 O.2     1  ZINC000263872566   -0.5000
     19 O19        -7.5543    1.3422   51.0410 O.3     1  ZINC000263872566   -0.3500
     20 C20        -6.8024    2.5761   50.8974 C.3     1  ZINC000263872566    0.1200
     21 C21        -7.6319    3.5896   50.1064 C.3     1  ZINC000263872566   -0.1800
     22 C22        -6.4868    3.1450   52.2821 C.3     1  ZINC000263872566   -0.1400
     23 C23        -5.4963    2.2937   50.1523 C.3     1  ZINC000263872566   -0.1800
     24 C24        -9.2799   -0.5526   53.2101 C.3     1  ZINC000263872566   -0.1300
     25 C25       -10.3475   -0.4785   54.2997 C.3     1  ZINC000263872566    0.1300
     26 C26        -8.3753   -0.8435   60.9396 C.ar    1  ZINC000263872566   -0.1000
     27 C27        -8.3377   -0.1149   62.1137 C.ar    1  ZINC000263872566   -0.1100
     28 H28        -7.5114    0.5294   64.4468 H       1  ZINC000263872566    0.0700
     29 H29        -8.4861    1.1613   65.7956 H       1  ZINC000263872566    0.0600
     30 H30        -8.8834   -0.4160   65.0728 H       1  ZINC000263872566    0.0700
     31 H31        -8.0801    2.6214   63.2092 H       1  ZINC000263872566    0.3800
     32 H32       -11.5669    0.8498   62.2541 H       1  ZINC000263872566    0.1300
     33 H33       -11.6324   -0.4429   60.1593 H       1  ZINC000263872566    0.1300
     34 H34        -8.8426   -2.5355   58.9873 H       1  ZINC000263872566    0.0800
     35 H35       -10.5849   -2.2037   58.8370 H       1  ZINC000263872566    0.0800
     36 H36        -8.7190   -0.1174   57.9249 H       1  ZINC000263872566    0.4000
     37 H37        -9.3086    1.8092   55.6416 H       1  ZINC000263872566    0.0800
     38 H38        -8.2745    0.8245   56.7087 H       1  ZINC000263872566    0.0800
     39 H39        -7.0681    1.6598   54.6594 H       1  ZINC000263872566    0.0900
     40 H40        -7.1027   -0.1166   54.7752 H       1  ZINC000263872566    0.0800
     41 H41        -9.0312    1.5859   53.1317 H       1  ZINC000263872566    0.1100
     42 H42        -8.5624    3.7908   50.6373 H       1  ZINC000263872566    0.0600
     43 H43        -7.0675    4.5159   49.9986 H       1  ZINC000263872566    0.0700
     44 H44        -7.8567    3.1843   49.1199 H       1  ZINC000263872566    0.0800
     45 H45        -5.8960    2.4230   52.8456 H       1  ZINC000263872566    0.0700
     46 H46        -5.9225    4.0713   52.1743 H       1  ZINC000263872566    0.0800
     47 H47        -7.4174    3.3463   52.8130 H       1  ZINC000263872566    0.0700
     48 H48        -5.7211    1.8883   49.1657 H       1  ZINC000263872566    0.0800
     49 H49        -4.9319    3.2198   50.0445 H       1  ZINC000263872566    0.0700
     50 H50        -4.9054    1.5716   50.7157 H       1  ZINC000263872566    0.0600
     51 H51        -9.7592   -0.6176   52.2332 H       1  ZINC000263872566    0.0900
     52 H52        -8.6601   -1.4345   53.3712 H       1  ZINC000263872566    0.0700
     53 H53       -10.9079   -1.4130   54.3263 H       1  ZINC000263872566    0.1000
     54 H54       -11.0245    0.3502   54.0922 H       1  ZINC000263872566    0.0700
     55 H55        -7.4787   -1.3192   60.5703 H       1  ZINC000263872566    0.1300
     56 H56        -7.4124   -0.0233   62.6630 H       1  ZINC000263872566    0.1300
@<TRIPOS>BOND
     1     1     2    1
     2     1    28    1
     3     1    29    1
     4     1    30    1
     5     2     3    1
     6     2     4    1
     7     2     5    1
     8     4    31    1
     9     5    27   ar
    10     5     6   ar
    11     6     7   ar
    12     6    32    1
    13     7     8   ar
    14     7    33    1
    15     8     9    1
    16     8    26   ar
    17     9    10    1
    18     9    34    1
    19     9    35    1
    20    10    11   am
    21    10    36    1
    22    11    12    2
    23    11    13   am
    24    13    25    1
    25    13    14    1
    26    14    15    1
    27    14    37    1
    28    14    38    1
    29    15    16    1
    30    15    39    1
    31    15    40    1
    32    16    17    1
    33    16    24    1
    34    16    41    1
    35    17    18    2
    36    17    19    1
    37    19    20    1
    38    20    21    1
    39    20    22    1
    40    20    23    1
    41    21    42    1
    42    21    43    1
    43    21    44    1
    44    22    45    1
    45    22    46    1
    46    22    47    1
    47    23    48    1
    48    23    49    1
    49    23    50    1
    50    24    25    1
    51    24    51    1
    52    24    52    1
    53    25    53    1
    54    25    54    1
    55    26    27   ar
    56    26    55    1
    57    27    56    1
@<TRIPOS>SUBSTRUCTURE
     1 ZINC000263872566        1 TEMP              0 ****  ****    0 ROOT


##########                                Name:    ZINC000788423111
##########                DOCK_Rotatable_Bonds:                   7
##########                         Heavy_Atoms:                  23
##########                    Molecular_Weight:             399.243
##########                DOCK_Rotatable_Bonds:                   7
##########                       Formal_Charge:         1.04308e-07
##########                     HBond_Acceptors:                   8
##########                        HBond_Donors:                   1
##########                         Heavy_Atoms:                  23
##########                          Grid_Score:          -34.224422
##########                     Grid_vdw_energy:          -33.899445
##########                      Grid_es_energy:           -0.324978
##########           Internal_energy_repulsive:            3.614490

@<TRIPOS>MOLECULE
ZINC000788423111
 35 37 1 0 0
SMALL
USER_CHARGES


@<TRIPOS>ATOM
      1 O1         -6.3818   -0.5116   51.2157 O.3     1  ZINC000788423111   -0.5400
      2 C2         -6.7550    0.7420   51.7915 C.3     1  ZINC000788423111    0.1000
      3 H3         -6.1079    0.9585   52.6415 H       1  ZINC000788423111    0.1300
      4 C4         -8.2093    0.6743   52.2619 C.3     1  ZINC000788423111    0.0300
      5 O5         -8.4674   -0.6122   52.8281 O.3     1  ZINC000788423111   -0.2900
      6 C6         -8.8624   -0.6462   54.1279 C.ar    1  ZINC000788423111    0.1700
      7 C7         -8.1020   -0.0157   55.1013 C.ar    1  ZINC000788423111   -0.2400
      8 C8         -8.5060   -0.0517   56.4244 C.ar    1  ZINC000788423111    0.1500
      9 F9         -7.7660    0.5621   57.3735 F       1  ZINC000788423111   -0.1300
     10 C10        -9.6688   -0.7163   56.7756 C.ar    1  ZINC000788423111   -0.1600
     11 C11       -10.4276   -1.3458   55.8052 C.ar    1  ZINC000788423111   -0.0300
     12 Br12      -12.0152   -2.2526   56.2882 Br      1  ZINC000788423111   -0.0200
     13 C13       -10.0300   -1.3070   54.4820 C.ar    1  ZINC000788423111   -0.1300
     14 C14        -6.6086    1.8479   50.7444 C.3     1  ZINC000788423111    0.1000
     15 N15        -5.1892    2.1581   50.5569 N.pl3   1  ZINC000788423111   -0.1300
     16 N16        -4.6015    3.2290   50.9626 N.2     1  ZINC000788423111   -0.0500
     17 N17        -3.3562    3.1758   50.6311 N.2     1  ZINC000788423111   -0.2600
     18 C18        -3.1647    2.0135   49.9883 C.2     1  ZINC000788423111    0.2400
     19 C19        -1.8920    1.5155   49.4223 C.2     1  ZINC000788423111   -0.1300
     20 C20        -0.6821    2.0751   49.6174 C.2     1  ZINC000788423111   -0.0800
     21 C21         0.3607    1.4297   48.9850 C.2     1  ZINC000788423111   -0.1400
     22 C22         0.0130    0.3511   48.2775 C.2     1  ZINC000788423111   -0.2000
     23 S23        -1.7231    0.0967   48.3965 S.3     1  ZINC000788423111    0.1700
     24 N24        -4.3326    1.3989   49.9648 N.2     1  ZINC000788423111   -0.2900
     25 H25        -5.5512   -0.4855   50.7213 H       1  ZINC000788423111    0.3800
     26 H26        -8.3842    1.4438   53.0138 H       1  ZINC000788423111    0.0900
     27 H27        -8.8736    0.8377   51.4134 H       1  ZINC000788423111    0.0800
     28 H28        -7.1950    0.5026   54.8270 H       1  ZINC000788423111    0.1500
     29 H29        -9.9835   -0.7435   57.8084 H       1  ZINC000788423111    0.1500
     30 H30       -10.6231   -1.7984   53.7250 H       1  ZINC000788423111    0.1500
     31 H31        -7.0351    1.5121   49.7992 H       1  ZINC000788423111    0.1300
     32 H32        -7.1340    2.7409   51.0832 H       1  ZINC000788423111    0.1300
     33 H33        -0.5397    2.9594   50.2208 H       1  ZINC000788423111    0.1500
     34 H34         1.3827    1.7716   49.0564 H       1  ZINC000788423111    0.1500
     35 H35         0.6957   -0.2731   47.7202 H       1  ZINC000788423111    0.1700
@<TRIPOS>BOND
     1     1     2    1
     2     1    25    1
     3     2     3    1
     4     2     4    1
     5     2    14    1
     6     4     5    1
     7     4    26    1
     8     4    27    1
     9     5     6    1
    10     6    13   ar
    11     6     7   ar
    12     7     8   ar
    13     7    28    1
    14     8     9    1
    15     8    10   ar
    16    10    11   ar
    17    10    29    1
    18    11    12    1
    19    11    13   ar
    20    13    30    1
    21    14    15    1
    22    14    31    1
    23    14    32    1
    24    15    24    1
    25    15    16    1
    26    16    17    2
    27    17    18    1
    28    18    19    1
    29    18    24    2
    30    19    23    1
    31    19    20    2
    32    20    21    1
    33    20    33    1
    34    21    22    2
    35    21    34    1
    36    22    23    1
    37    22    35    1
@<TRIPOS>SUBSTRUCTURE
     1 ZINC000788423111        1 TEMP              0 ****  ****    0 ROOT


##########                                Name:    ZINC000442010511
##########                DOCK_Rotatable_Bonds:                  11
##########                         Heavy_Atoms:                  31
##########                    Molecular_Weight:             422.481
##########                DOCK_Rotatable_Bonds:                  11
##########                       Formal_Charge:          -0.0200005
##########                     HBond_Acceptors:                   7
##########                        HBond_Donors:                   2
##########                         Heavy_Atoms:                  31
##########                          Grid_Score:          -34.222115
##########                     Grid_vdw_energy:          -32.971691
##########                      Grid_es_energy:           -1.250423
##########           Internal_energy_repulsive:           10.003861

@<TRIPOS>MOLECULE
ZINC000442010511
 57 59 1 0 0
SMALL
USER_CHARGES


@<TRIPOS>ATOM
      1 C1         -7.5542    1.2349   66.7186 C.3     1  ZINC000442010511   -0.1500
      2 C2         -7.4861    0.0236   65.7864 C.3     1  ZINC000442010511   -0.0500
      3 C3         -8.3692    0.2612   64.5885 C.2     1  ZINC000442010511    0.0000
      4 C4         -8.0537   -0.0178   63.3111 C.2     1  ZINC000442010511   -0.2100
      5 C5         -9.1639    0.3628   62.5226 C.2     1  ZINC000442010511   -0.1900
      6 C6        -10.0913    0.8514   63.3654 C.2     1  ZINC000442010511   -0.0300
      7 C7        -11.4470    1.3802   62.9736 C.3     1  ZINC000442010511    0.2400
      8 H8        -12.1102    1.3559   63.8383 H       1  ZINC000442010511    0.1400
      9 C9        -11.3086    2.8208   62.4774 C.3     1  ZINC000442010511    0.0500
     10 O10       -12.5506    3.5059   62.6510 O.3     1  ZINC000442010511   -0.3800
     11 C11       -12.8122    3.9025   63.9988 C.3     1  ZINC000442010511    0.0300
     12 N12       -12.0061    0.5475   61.9058 N.am    1  ZINC000442010511   -0.6900
     13 C13       -13.3415    0.4080   61.7892 C.2     1  ZINC000442010511    0.5200
     14 O14       -14.0808    0.9711   62.5697 O.2     1  ZINC000442010511   -0.5100
     15 C15       -13.9115   -0.4394   60.6996 C.2     1  ZINC000442010511    0.5100
     16 O16       -14.8010   -0.0061   59.9963 O.2     1  ZINC000442010511   -0.5000
     17 N17       -13.4384   -1.6850   60.4972 N.am    1  ZINC000442010511   -0.6300
     18 C18       -13.9722   -2.4785   59.4768 C.ar    1  ZINC000442010511    0.1200
     19 C19       -15.2231   -3.0593   59.6293 C.ar    1  ZINC000442010511   -0.1000
     20 C20       -15.7484   -3.8432   58.6194 C.ar    1  ZINC000442010511   -0.1300
     21 C21       -15.0306   -4.0509   57.4561 C.ar    1  ZINC000442010511   -0.0900
     22 C22       -13.7832   -3.4762   57.2965 C.ar    1  ZINC000442010511   -0.1700
     23 C23       -13.2515   -2.6838   58.3010 C.ar    1  ZINC000442010511    0.1000
     24 O24       -12.0253   -2.1181   58.1457 O.3     1  ZINC000442010511   -0.2600
     25 C25       -11.6592   -1.7210   56.8989 C.ar    1  ZINC000442010511    0.0800
     26 C26       -10.7270   -2.4566   56.1810 C.ar    1  ZINC000442010511   -0.1300
     27 C27       -10.3567   -2.0511   54.9135 C.ar    1  ZINC000442010511   -0.1100
     28 C28       -10.9138   -0.9128   54.3603 C.ar    1  ZINC000442010511   -0.0800
     29 C29       -10.5076   -0.4724   52.9775 C.3     1  ZINC000442010511   -0.1200
     30 C30       -11.8432   -0.1782   55.0733 C.ar    1  ZINC000442010511   -0.1100
     31 C31       -12.2209   -0.5824   56.3391 C.ar    1  ZINC000442010511   -0.1100
     32 O32        -9.6066    0.7822   64.6161 O.3     1  ZINC000442010511   -0.1600
     33 H33        -7.2131    2.1227   66.1861 H       1  ZINC000442010511    0.0600
     34 H34        -8.5824    1.3819   67.0487 H       1  ZINC000442010511    0.0600
     35 H35        -6.9155    1.0629   67.5849 H       1  ZINC000442010511    0.0700
     36 H36        -6.4578   -0.1236   65.4563 H       1  ZINC000442010511    0.0900
     37 H37        -7.8272   -0.8643   66.3188 H       1  ZINC000442010511    0.0800
     38 H38        -7.1296   -0.4491   62.9557 H       1  ZINC000442010511    0.1500
     39 H39        -9.2506    0.2777   61.4494 H       1  ZINC000442010511    0.1500
     40 H40       -10.5308    3.3285   63.0477 H       1  ZINC000442010511    0.0700
     41 H41       -11.0405    2.8169   61.4208 H       1  ZINC000442010511    0.0700
     42 H42       -13.7727    4.4157   64.0466 H       1  ZINC000442010511    0.0900
     43 H43       -12.8391    3.0204   64.6384 H       1  ZINC000442010511    0.0400
     44 H44       -12.0241    4.5743   64.3391 H       1  ZINC000442010511    0.0400
     45 H45       -11.4151    0.0965   61.2827 H       1  ZINC000442010511    0.4200
     46 H46       -12.7277   -2.0310   61.0593 H       1  ZINC000442010511    0.4300
     47 H47       -15.7861   -2.8991   60.5369 H       1  ZINC000442010511    0.1600
     48 H48       -16.7221   -4.2949   58.7394 H       1  ZINC000442010511    0.1300
     49 H49       -15.4453   -4.6642   56.6699 H       1  ZINC000442010511    0.1300
     50 H50       -13.2251   -3.6412   56.3868 H       1  ZINC000442010511    0.1300
     51 H51       -10.2910   -3.3454   56.6130 H       1  ZINC000442010511    0.1300
     52 H52        -9.6313   -2.6232   54.3543 H       1  ZINC000442010511    0.1300
     53 H53       -11.1668   -0.9325   52.2413 H       1  ZINC000442010511    0.0700
     54 H54       -10.5830    0.6126   52.9049 H       1  ZINC000442010511    0.0700
     55 H55        -9.4792   -0.7787   52.7861 H       1  ZINC000442010511    0.0700
     56 H56       -12.2767    0.7104   54.6389 H       1  ZINC000442010511    0.1300
     57 H57       -12.9470   -0.0084   56.8956 H       1  ZINC000442010511    0.1300
@<TRIPOS>BOND
     1     1     2    1
     2     1    33    1
     3     1    34    1
     4     1    35    1
     5     2     3    1
     6     2    36    1
     7     2    37    1
     8     3    32    1
     9     3     4    2
    10     4     5    1
    11     4    38    1
    12     5     6    2
    13     5    39    1
    14     6     7    1
    15     6    32    1
    16     7     8    1
    17     7     9    1
    18     7    12    1
    19     9    10    1
    20     9    40    1
    21     9    41    1
    22    10    11    1
    23    11    42    1
    24    11    43    1
    25    11    44    1
    26    12    13   am
    27    12    45    1
    28    13    14    2
    29    13    15    1
    30    15    16    2
    31    15    17   am
    32    17    18    1
    33    17    46    1
    34    18    23   ar
    35    18    19   ar
    36    19    20   ar
    37    19    47    1
    38    20    21   ar
    39    20    48    1
    40    21    22   ar
    41    21    49    1
    42    22    23   ar
    43    22    50    1
    44    23    24    1
    45    24    25    1
    46    25    31   ar
    47    25    26   ar
    48    26    27   ar
    49    26    51    1
    50    27    28   ar
    51    27    52    1
    52    28    29    1
    53    28    30   ar
    54    29    53    1
    55    29    54    1
    56    29    55    1
    57    30    31   ar
    58    30    56    1
    59    31    57    1
@<TRIPOS>SUBSTRUCTURE
     1 ZINC000442010511        1 TEMP              0 ****  ****    0 ROOT


##########                                Name:    ZINC000487792031
##########                DOCK_Rotatable_Bonds:                  12
##########                         Heavy_Atoms:                  29
##########                    Molecular_Weight:             414.569
##########                DOCK_Rotatable_Bonds:                  12
##########                       Formal_Charge:          -0.0100001
##########                     HBond_Acceptors:                   6
##########                        HBond_Donors:                   1
##########                         Heavy_Atoms:                  29
##########                          Grid_Score:          -34.188705
##########                     Grid_vdw_energy:          -34.580009
##########                      Grid_es_energy:            0.391306
##########           Internal_energy_repulsive:           20.325869

@<TRIPOS>MOLECULE
ZINC000487792031
 59 60 1 0 0
SMALL
USER_CHARGES


@<TRIPOS>ATOM
      1 C1         -9.2207    5.4644   51.5466 C.2     1  ZINC000487792031   -0.1900
      2 C2         -8.3872    4.8713   50.7282 C.2     1  ZINC000487792031   -0.1500
      3 C3         -8.7455    3.5385   50.1230 C.3     1  ZINC000487792031   -0.0900
      4 C4         -7.4689    2.7357   49.8651 C.3     1  ZINC000487792031   -0.0900
      5 C5         -6.7303    2.5138   51.1866 C.3     1  ZINC000487792031   -0.0700
      6 H6         -7.0783    3.2379   51.9233 H       1  ZINC000487792031    0.1100
      7 C7         -7.0028    1.1184   51.6862 C.2     1  ZINC000487792031    0.5200
      8 O8         -6.0833    0.4090   52.0356 O.2     1  ZINC000487792031   -0.5300
      9 N9         -8.2684    0.6586   51.7444 N.am    1  ZINC000487792031   -0.7200
     10 C10        -8.5332   -0.6985   52.2284 C.3     1  ZINC000487792031    0.1500
     11 C11        -9.3570   -0.6307   53.4885 C.ar    1  ZINC000487792031   -0.0500
     12 C12       -10.7225   -0.8384   53.4335 C.ar    1  ZINC000487792031   -0.1200
     13 C13       -11.4781   -0.7762   54.5894 C.ar    1  ZINC000487792031   -0.0200
     14 C14       -10.8682   -0.5068   55.8004 C.ar    1  ZINC000487792031   -0.6700
     15 S15       -11.8314   -0.4270   57.2736 S.o2    1  ZINC000487792031    2.6900
     16 O16       -11.0860    0.3528   58.1986 O.2     1  ZINC000487792031   -0.9500
     17 O17       -13.1544   -0.1007   56.8708 O.2     1  ZINC000487792031   -0.9500
     18 N18       -11.8974   -1.9586   57.8996 N.am    1  ZINC000487792031   -1.0000
     19 C19       -12.4807   -3.0474   57.1119 C.3     1  ZINC000487792031    0.1200
     20 C20       -13.9698   -3.1732   57.4402 C.3     1  ZINC000487792031   -0.1800
     21 C21       -11.3725   -2.2247   59.2413 C.3     1  ZINC000487792031    0.1100
     22 C22       -10.0166   -2.9246   59.1289 C.3     1  ZINC000487792031   -0.1800
     23 C23        -9.5024   -0.3003   55.8555 C.ar    1  ZINC000487792031   -0.0200
     24 C24        -8.7462   -0.3663   54.7001 C.ar    1  ZINC000487792031   -0.1200
     25 C25        -5.2494    2.6895   50.9700 C.ar    1  ZINC000487792031   -0.0800
     26 C26        -4.5823    3.7391   51.5735 C.ar    1  ZINC000487792031   -0.1100
     27 C27        -3.2238    3.9002   51.3748 C.ar    1  ZINC000487792031   -0.1100
     28 C28        -2.5324    3.0114   50.5730 C.ar    1  ZINC000487792031   -0.1200
     29 C29        -3.1993    1.9612   49.9703 C.ar    1  ZINC000487792031   -0.1200
     30 C30        -4.5570    1.7977   50.1725 C.ar    1  ZINC000487792031   -0.1100
     31 H31        -8.9639    6.4197   51.9803 H       1  ZINC000487792031    0.1000
     32 H32       -10.1665    5.0003   51.7841 H       1  ZINC000487792031    0.1000
     33 H33        -7.4432    5.3375   50.4873 H       1  ZINC000487792031    0.1100
     34 H34        -9.3881    2.9883   50.8104 H       1  ZINC000487792031    0.0700
     35 H35        -9.2718    3.6966   49.1816 H       1  ZINC000487792031    0.0700
     36 H36        -7.7280    1.7717   49.4274 H       1  ZINC000487792031    0.0800
     37 H37        -6.8264    3.2860   49.1778 H       1  ZINC000487792031    0.0700
     38 H38        -9.0039    1.2263   51.4659 H       1  ZINC000487792031    0.4000
     39 H39        -9.0791   -1.2557   51.4670 H       1  ZINC000487792031    0.0800
     40 H40        -7.5886   -1.2002   52.4383 H       1  ZINC000487792031    0.0800
     41 H41       -11.1991   -1.0491   52.4876 H       1  ZINC000487792031    0.1400
     42 H42       -12.5451   -0.9380   54.5465 H       1  ZINC000487792031    0.1400
     43 H43       -12.3596   -2.8331   56.0501 H       1  ZINC000487792031    0.0800
     44 H44       -11.9751   -3.9822   57.3539 H       1  ZINC000487792031    0.0800
     45 H45       -14.0910   -3.3876   58.5020 H       1  ZINC000487792031    0.0600
     46 H46       -14.4755   -2.2385   57.1982 H       1  ZINC000487792031    0.0600
     47 H47       -14.4038   -3.9833   56.8541 H       1  ZINC000487792031    0.0700
     48 H48       -11.2521   -1.2834   59.7776 H       1  ZINC000487792031    0.0900
     49 H49       -12.0683   -2.8652   59.7832 H       1  ZINC000487792031    0.0900
     50 H50       -10.1370   -3.8659   58.5926 H       1  ZINC000487792031    0.0600
     51 H51        -9.3209   -2.2841   58.5870 H       1  ZINC000487792031    0.0600
     52 H52        -9.6262   -3.1225   60.1271 H       1  ZINC000487792031    0.0700
     53 H53        -9.0257   -0.0901   56.8015 H       1  ZINC000487792031    0.1400
     54 H54        -7.6791   -0.2050   54.7432 H       1  ZINC000487792031    0.1400
     55 H55        -5.1225    4.4334   52.1998 H       1  ZINC000487792031    0.1200
     56 H56        -2.7027    4.7206   51.8457 H       1  ZINC000487792031    0.1200
     57 H57        -1.4711    3.1376   50.4172 H       1  ZINC000487792031    0.1200
     58 H58        -2.6591    1.2671   49.3436 H       1  ZINC000487792031    0.1200
     59 H59        -5.0780    0.9771   49.7015 H       1  ZINC000487792031    0.1200
@<TRIPOS>BOND
     1     1     2    2
     2     1    31    1
     3     1    32    1
     4     2     3    1
     5     2    33    1
     6     3     4    1
     7     3    34    1
     8     3    35    1
     9     4     5    1
    10     4    36    1
    11     4    37    1
    12     5     6    1
    13     5     7    1
    14     5    25    1
    15     7     8    2
    16     7     9   am
    17     9    10    1
    18     9    38    1
    19    10    11    1
    20    10    39    1
    21    10    40    1
    22    11    24   ar
    23    11    12   ar
    24    12    13   ar
    25    12    41    1
    26    13    14   ar
    27    13    42    1
    28    14    15    1
    29    14    23   ar
    30    15    16    2
    31    15    17    2
    32    15    18   am
    33    18    19    1
    34    18    21    1
    35    19    20    1
    36    19    43    1
    37    19    44    1
    38    20    45    1
    39    20    46    1
    40    20    47    1
    41    21    22    1
    42    21    48    1
    43    21    49    1
    44    22    50    1
    45    22    51    1
    46    22    52    1
    47    23    24   ar
    48    23    53    1
    49    24    54    1
    50    25    30   ar
    51    25    26   ar
    52    26    27   ar
    53    26    55    1
    54    27    28   ar
    55    27    56    1
    56    28    29   ar
    57    28    57    1
    58    29    30   ar
    59    29    58    1
    60    30    59    1
@<TRIPOS>SUBSTRUCTURE
     1 ZINC000487792031        1 TEMP              0 ****  ****    0 ROOT


##########                                Name:    ZINC000505965769
##########                DOCK_Rotatable_Bonds:                   9
##########                         Heavy_Atoms:                  29
##########                    Molecular_Weight:              419.88
##########                DOCK_Rotatable_Bonds:                   9
##########                       Formal_Charge:               -0.02
##########                     HBond_Acceptors:                   7
##########                        HBond_Donors:                   1
##########                         Heavy_Atoms:                  29
##########                          Grid_Score:          -34.182751
##########                     Grid_vdw_energy:          -34.440781
##########                      Grid_es_energy:            0.258030
##########           Internal_energy_repulsive:            9.178017

@<TRIPOS>MOLECULE
ZINC000505965769
 52 54 1 0 0
SMALL
USER_CHARGES


@<TRIPOS>ATOM
      1 C1         -5.9439    2.2804   49.6507 C.3     1  ZINC000505965769    0.0200
      2 O2         -5.3992    1.6967   50.8359 O.3     1  ZINC000505965769   -0.3100
      3 C3         -6.2799    1.3085   51.7920 C.ar    1  ZINC000505965769    0.1800
      4 C4         -6.9541    0.0988   51.6629 C.ar    1  ZINC000505965769   -0.2200
      5 C5         -7.8422   -0.3003   52.6206 C.ar    1  ZINC000505965769   -0.0200
      6 C6         -8.0777    0.5092   53.7388 C.ar    1  ZINC000505965769   -0.2100
      7 C7         -9.0312    0.0823   54.7696 C.2     1  ZINC000505965769    0.3900
      8 O8         -8.6334   -0.4797   55.7683 O.2     1  ZINC000505965769   -0.4400
      9 C9        -10.5044    0.3422   54.5874 C.3     1  ZINC000505965769   -0.1500
     10 C10       -11.2025   -0.9527   54.1668 C.3     1  ZINC000505965769   -0.1300
     11 C11       -11.4403   -1.8125   55.3813 C.2     1  ZINC000505965769    0.5200
     12 O12       -10.8809   -2.8836   55.4849 O.2     1  ZINC000505965769   -0.5300
     13 N13       -12.2746   -1.3912   56.3524 N.am    1  ZINC000505965769   -0.7200
     14 C14       -12.5070   -2.2279   57.5322 C.3     1  ZINC000505965769    0.1900
     15 H15       -12.3802   -3.2769   57.2646 H       1  ZINC000505965769    0.1100
     16 C16       -11.5196   -1.8617   58.6102 C.ar    1  ZINC000505965769   -0.1000
     17 C17       -10.5003   -2.7358   58.9390 C.ar    1  ZINC000505965769   -0.0900
     18 C18        -9.5942   -2.4010   59.9274 C.ar    1  ZINC000505965769   -0.1500
     19 C19        -9.7072   -1.1895   60.5879 C.ar    1  ZINC000505965769    0.1000
     20 F20        -8.8218   -0.8610   61.5540 F       1  ZINC000505965769   -0.1400
     21 C21       -10.7283   -0.3145   60.2574 C.ar    1  ZINC000505965769   -0.1500
     22 C22       -11.6303   -0.6494   59.2654 C.ar    1  ZINC000505965769   -0.0600
     23 C23       -13.9302   -2.0011   58.0460 C.3     1  ZINC000505965769    0.0800
     24 H24       -14.1815   -0.9412   58.0069 H       1  ZINC000505965769    0.0700
     25 C25       -14.9416   -2.8247   57.2095 C.3     1  ZINC000505965769   -0.1500
     26 C26       -16.1072   -2.9787   58.2242 C.3     1  ZINC000505965769   -0.1600
     27 C27       -15.3585   -3.0761   59.5708 C.3     1  ZINC000505965769    0.0500
     28 O28       -14.0604   -2.4953   59.3885 O.3     1  ZINC000505965769   -0.3700
     29 C29        -7.3986    1.7290   53.8700 C.ar    1  ZINC000505965769    0.0500
     30 Cl30       -7.6827    2.7405   55.2519 Cl      1  ZINC000505965769   -0.0200
     31 C31        -6.5009    2.1189   52.9000 C.ar    1  ZINC000505965769   -0.1600
     32 H32        -6.5060    3.1769   49.9124 H       1  ZINC000505965769    0.0600
     33 H33        -5.1341    2.5449   48.9707 H       1  ZINC000505965769    0.1100
     34 H34        -6.6071    1.5646   49.1649 H       1  ZINC000505965769    0.0600
     35 H35        -6.7748   -0.5274   50.8015 H       1  ZINC000505965769    0.1400
     36 H36        -8.3634   -1.2404   52.5153 H       1  ZINC000505965769    0.1500
     37 H37       -10.9299    0.6958   55.5265 H       1  ZINC000505965769    0.1100
     38 H38       -10.6472    1.0990   53.8161 H       1  ZINC000505965769    0.1100
     39 H39       -12.1572   -0.7148   53.6974 H       1  ZINC000505965769    0.1000
     40 H40       -10.5734   -1.4910   53.4580 H       1  ZINC000505965769    0.1000
     41 H41       -12.7210   -0.5340   56.2701 H       1  ZINC000505965769    0.4000
     42 H42       -10.4123   -3.6808   58.4237 H       1  ZINC000505965769    0.1300
     43 H43        -8.7984   -3.0843   60.1846 H       1  ZINC000505965769    0.1400
     44 H44       -10.8177    0.6306   60.7722 H       1  ZINC000505965769    0.1400
     45 H45       -12.4266    0.0330   59.0071 H       1  ZINC000505965769    0.1400
     46 H46       -15.2609   -2.2735   56.3250 H       1  ZINC000505965769    0.0700
     47 H47       -14.5274   -3.7954   56.9368 H       1  ZINC000505965769    0.1000
     48 H48       -16.7571   -2.1039   58.2041 H       1  ZINC000505965769    0.0700
     49 H49       -16.6740   -3.8890   58.0288 H       1  ZINC000505965769    0.0800
     50 H50       -15.9039   -2.5259   60.3377 H       1  ZINC000505965769    0.0700
     51 H51       -15.2593   -4.1212   59.8640 H       1  ZINC000505965769    0.0700
     52 H52        -5.9750    3.0573   52.9964 H       1  ZINC000505965769    0.1500
@<TRIPOS>BOND
     1     1     2    1
     2     1    32    1
     3     1    33    1
     4     1    34    1
     5     2     3    1
     6     3    31   ar
     7     3     4   ar
     8     4     5   ar
     9     4    35    1
    10     5     6   ar
    11     5    36    1
    12     6     7    1
    13     6    29   ar
    14     7     8    2
    15     7     9    1
    16     9    10    1
    17     9    37    1
    18     9    38    1
    19    10    11    1
    20    10    39    1
    21    10    40    1
    22    11    12    2
    23    11    13   am
    24    13    14    1
    25    13    41    1
    26    14    15    1
    27    14    16    1
    28    14    23    1
    29    16    22   ar
    30    16    17   ar
    31    17    18   ar
    32    17    42    1
    33    18    19   ar
    34    18    43    1
    35    19    20    1
    36    19    21   ar
    37    21    22   ar
    38    21    44    1
    39    22    45    1
    40    23    24    1
    41    23    28    1
    42    23    25    1
    43    25    26    1
    44    25    46    1
    45    25    47    1
    46    26    27    1
    47    26    48    1
    48    26    49    1
    49    27    28    1
    50    27    50    1
    51    27    51    1
    52    29    30    1
    53    29    31   ar
    54    31    52    1
@<TRIPOS>SUBSTRUCTURE
     1 ZINC000505965769        1 TEMP              0 ****  ****    0 ROOT


##########                                Name:    ZINC000046390957
##########                DOCK_Rotatable_Bonds:                   9
##########                         Heavy_Atoms:                  29
##########                    Molecular_Weight:             408.521
##########                DOCK_Rotatable_Bonds:                   9
##########                       Formal_Charge:           0.0100005
##########                     HBond_Acceptors:                   6
##########                        HBond_Donors:                   1
##########                         Heavy_Atoms:                  29
##########                          Grid_Score:          -34.132420
##########                     Grid_vdw_energy:          -33.370518
##########                      Grid_es_energy:           -0.761901
##########           Internal_energy_repulsive:           15.685041

@<TRIPOS>MOLECULE
ZINC000046390957
 53 55 1 0 0
SMALL
USER_CHARGES


@<TRIPOS>ATOM
      1 C1         -6.2966    0.2894   51.0383 C.3     1  ZINC000046390957   -0.1100
      2 C2         -6.0171    1.6219   51.6842 C.ar    1  ZINC000046390957   -0.0600
      3 C3         -5.0240    2.4394   51.1809 C.ar    1  ZINC000046390957   -0.1200
      4 C4         -4.7666    3.6620   51.7734 C.ar    1  ZINC000046390957   -0.1100
      5 C5         -5.5022    4.0705   52.8707 C.ar    1  ZINC000046390957   -0.1200
      6 C6         -6.4969    3.2579   53.3785 C.ar    1  ZINC000046390957   -0.0800
      7 C7         -7.2984    3.7042   54.5742 C.3     1  ZINC000046390957   -0.1100
      8 C8         -6.7614    2.0318   52.7826 C.ar    1  ZINC000046390957    0.1300
      9 N9         -7.7688    1.2064   53.2943 N.am    1  ZINC000046390957   -0.6800
     10 C10        -8.9576    1.1247   52.6648 C.2     1  ZINC000046390957    0.5200
     11 O11        -9.1544    1.7667   51.6547 O.2     1  ZINC000046390957   -0.4900
     12 C12       -10.0426    0.2357   53.2159 C.3     1  ZINC000046390957    0.0700
     13 H13       -10.6768    0.8117   53.8899 H       1  ZINC000046390957    0.1100
     14 C14       -10.8876   -0.3116   52.0638 C.3     1  ZINC000046390957   -0.1700
     15 O15        -9.4414   -0.8684   53.9424 O.3     1  ZINC000046390957   -0.3300
     16 C16       -10.2101   -1.4919   54.8489 C.2     1  ZINC000046390957    0.4700
     17 O17       -10.4663   -2.6655   54.7190 O.2     1  ZINC000046390957   -0.4800
     18 C18       -10.7537   -0.7281   56.0290 C.3     1  ZINC000046390957   -0.0300
     19 C19       -10.3212   -1.4018   57.3057 C.2     1  ZINC000046390957    0.0800
     20 C20       -10.8096   -2.5810   57.7022 C.2     1  ZINC000046390957   -0.2500
     21 S21       -10.0418   -2.9992   59.2319 S.3     1  ZINC000046390957    0.1300
     22 C22        -9.1404   -1.5470   59.1863 C.2     1  ZINC000046390957    0.0600
     23 C23        -8.1503   -1.1129   60.2362 C.3     1  ZINC000046390957    0.0000
     24 C24        -8.8763   -0.3953   61.3449 C.ar    1  ZINC000046390957   -0.0900
     25 C25        -8.3914   -0.4515   62.6382 C.ar    1  ZINC000046390957   -0.0900
     26 C26        -9.0573    0.2067   63.6552 C.ar    1  ZINC000046390957   -0.1200
     27 C27       -10.2077    0.9214   63.3788 C.ar    1  ZINC000046390957   -0.1200
     28 C28       -10.6922    0.9784   62.0853 C.ar    1  ZINC000046390957   -0.1200
     29 C29       -10.0239    0.3237   61.0676 C.ar    1  ZINC000046390957   -0.1100
     30 N30        -9.4265   -0.8793   58.1198 N.2     1  ZINC000046390957   -0.4500
     31 H31        -6.9580    0.4315   50.1837 H       1  ZINC000046390957    0.0800
     32 H32        -5.3597   -0.1554   50.7026 H       1  ZINC000046390957    0.0700
     33 H33        -6.7741   -0.3719   51.7614 H       1  ZINC000046390957    0.0600
     34 H34        -4.4478    2.1232   50.3240 H       1  ZINC000046390957    0.1300
     35 H35        -3.9891    4.2991   51.3784 H       1  ZINC000046390957    0.1300
     36 H36        -5.2985    5.0259   53.3314 H       1  ZINC000046390957    0.1300
     37 H37        -8.1749    4.2579   54.2378 H       1  ZINC000046390957    0.0700
     38 H38        -7.6166    2.8314   55.1444 H       1  ZINC000046390957    0.0600
     39 H39        -6.6832    4.3458   55.2050 H       1  ZINC000046390957    0.0700
     40 H40        -7.6115    0.6930   54.1021 H       1  ZINC000046390957    0.4100
     41 H41       -11.3390    0.5173   51.5185 H       1  ZINC000046390957    0.0800
     42 H42       -10.2535   -0.8876   51.3898 H       1  ZINC000046390957    0.0800
     43 H43       -11.6725   -0.9546   52.4624 H       1  ZINC000046390957    0.0800
     44 H44       -10.3711    0.2923   56.0088 H       1  ZINC000046390957    0.1200
     45 H45       -11.8423   -0.7090   55.9790 H       1  ZINC000046390957    0.1300
     46 H46       -11.5451   -3.1729   57.1776 H       1  ZINC000046390957    0.1800
     47 H47        -7.6429   -1.9885   60.6413 H       1  ZINC000046390957    0.1000
     48 H48        -7.4167   -0.4425   59.7887 H       1  ZINC000046390957    0.1000
     49 H49        -7.4925   -1.0099   62.8541 H       1  ZINC000046390957    0.1200
     50 H50        -8.6789    0.1622   64.6657 H       1  ZINC000046390957    0.1200
     51 H51       -10.7284    1.4351   64.1736 H       1  ZINC000046390957    0.1200
     52 H52       -11.5911    1.5365   61.8694 H       1  ZINC000046390957    0.1200
     53 H53       -10.4023    0.3682   60.0571 H       1  ZINC000046390957    0.1200
@<TRIPOS>BOND
     1     1     2    1
     2     1    31    1
     3     1    32    1
     4     1    33    1
     5     2     8   ar
     6     2     3   ar
     7     3     4   ar
     8     3    34    1
     9     4     5   ar
    10     4    35    1
    11     5     6   ar
    12     5    36    1
    13     6     7    1
    14     6     8   ar
    15     7    37    1
    16     7    38    1
    17     7    39    1
    18     8     9    1
    19     9    10   am
    20     9    40    1
    21    10    11    2
    22    10    12    1
    23    12    13    1
    24    12    14    1
    25    12    15    1
    26    14    41    1
    27    14    42    1
    28    14    43    1
    29    15    16    1
    30    16    17    2
    31    16    18    1
    32    18    19    1
    33    18    44    1
    34    18    45    1
    35    19    30    1
    36    19    20    2
    37    20    21    1
    38    20    46    1
    39    21    22    1
    40    22    23    1
    41    22    30    2
    42    23    24    1
    43    23    47    1
    44    23    48    1
    45    24    29   ar
    46    24    25   ar
    47    25    26   ar
    48    25    49    1
    49    26    27   ar
    50    26    50    1
    51    27    28   ar
    52    27    51    1
    53    28    29   ar
    54    28    52    1
    55    29    53    1
@<TRIPOS>SUBSTRUCTURE
     1 ZINC000046390957        1 TEMP              0 ****  ****    0 ROOT


##########                                Name:    ZINC000821177065
##########                DOCK_Rotatable_Bonds:                  10
##########                         Heavy_Atoms:                  25
##########                    Molecular_Weight:             341.413
##########                DOCK_Rotatable_Bonds:                  10
##########                       Formal_Charge:          0.00999917
##########                     HBond_Acceptors:                   7
##########                        HBond_Donors:                   3
##########                         Heavy_Atoms:                  25
##########                          Grid_Score:          -34.129791
##########                     Grid_vdw_energy:          -34.080055
##########                      Grid_es_energy:           -0.049737
##########           Internal_energy_repulsive:           16.958675

@<TRIPOS>MOLECULE
ZINC000821177065
 48 51 1 0 0
SMALL
USER_CHARGES


@<TRIPOS>ATOM
      1 O1         -9.5844    0.4700   54.2663 O.2     1  ZINC000821177065   -0.5600
      2 C2         -8.6209    0.2940   54.9868 C.2     1  ZINC000821177065    0.7100
      3 N3         -8.7967    0.0673   56.3037 N.am    1  ZINC000821177065   -0.7300
      4 C4        -10.1483    0.0387   56.8681 C.3     1  ZINC000821177065    0.1200
      5 C5        -10.5546   -1.4100   57.1457 C.3     1  ZINC000821177065    0.1900
      6 O6        -10.1476   -2.2365   56.0534 O.3     1  ZINC000821177065   -0.5400
      7 C7         -9.8777   -1.8923   58.4302 C.3     1  ZINC000821177065   -0.1500
      8 C8        -10.7430   -2.6396   59.4470 C.3     1  ZINC000821177065   -0.1600
      9 C9         -9.7089   -3.4017   58.6158 C.3     1  ZINC000821177065   -0.1700
     10 C10       -12.0738   -1.4913   57.3083 C.3     1  ZINC000821177065   -0.1800
     11 C11       -12.9229   -1.4676   56.0359 C.3     1  ZINC000821177065   -0.1900
     12 C12       -12.7684   -2.7673   56.8282 C.3     1  ZINC000821177065   -0.1700
     13 N13        -7.3775    0.3202   54.4677 N.am    1  ZINC000821177065   -0.6500
     14 C14        -7.1947    0.5560   53.0978 C.2     1  ZINC000821177065    0.3200
     15 N15        -6.6673    1.6327   52.5647 N.2     1  ZINC000821177065   -0.3200
     16 N16        -6.6656    1.4752   51.1729 N.pl3   1  ZINC000821177065   -0.3600
     17 C17        -6.1632    2.4459   50.1975 C.3     1  ZINC000821177065    0.1900
     18 C18        -4.6566    2.4138   50.1872 C.ar    1  ZINC000821177065    0.1100
     19 C19        -3.9483    3.3635   50.8985 C.ar    1  ZINC000821177065   -0.1500
     20 C20        -2.5623    3.3248   50.8827 C.ar    1  ZINC000821177065   -0.0700
     21 C21        -1.9383    2.3280   50.1488 C.ar    1  ZINC000821177065   -0.1700
     22 C22        -2.7130    1.4121   49.4620 C.ar    1  ZINC000821177065    0.1000
     23 N23        -4.0293    1.4764   49.5036 N.ar    1  ZINC000821177065   -0.4700
     24 C24        -7.2072    0.2723   50.8876 C.2     1  ZINC000821177065    0.0700
     25 C25        -7.5382   -0.3213   52.0568 C.2     1  ZINC000821177065   -0.2600
     26 H26        -8.0282   -0.0771   56.8778 H       1  ZINC000821177065    0.4000
     27 H27       -10.1654    0.6056   57.7990 H       1  ZINC000821177065    0.0700
     28 H28       -10.8474    0.4827   56.1594 H       1  ZINC000821177065    0.0800
     29 H29        -9.2048   -2.4515   56.0527 H       1  ZINC000821177065    0.3800
     30 H30        -9.0898   -1.2464   58.8176 H       1  ZINC000821177065    0.1100
     31 H31       -10.5246   -2.4852   60.5036 H       1  ZINC000821177065    0.0900
     32 H32       -11.7945   -2.7875   59.2008 H       1  ZINC000821177065    0.1100
     33 H33       -10.0801   -4.0509   57.8228 H       1  ZINC000821177065    0.1000
     34 H34        -8.8102   -3.7486   59.1257 H       1  ZINC000821177065    0.0900
     35 H35       -12.4788   -1.0004   58.1932 H       1  ZINC000821177065    0.1100
     36 H36       -13.8867   -0.9608   56.0833 H       1  ZINC000821177065    0.1000
     37 H37       -12.3993   -1.3940   55.0827 H       1  ZINC000821177065    0.1100
     38 H38       -12.1431   -3.5487   56.3964 H       1  ZINC000821177065    0.0900
     39 H39       -13.6306   -3.1155   57.3970 H       1  ZINC000821177065    0.1000
     40 H40        -6.6090    0.1759   55.0418 H       1  ZINC000821177065    0.4100
     41 H41        -6.5388    2.1926   49.2061 H       1  ZINC000821177065    0.1000
     42 H42        -6.5034    3.4448   50.4707 H       1  ZINC000821177065    0.1200
     43 H43        -4.4677    4.1264   51.4594 H       1  ZINC000821177065    0.1400
     44 H44        -1.9826    4.0543   51.4290 H       1  ZINC000821177065    0.1400
     45 H45        -0.8605    2.2678   50.1138 H       1  ZINC000821177065    0.1400
     46 H46        -2.2345    0.6327   48.8875 H       1  ZINC000821177065    0.1600
     47 H47        -7.3471   -0.1442   49.9011 H       1  ZINC000821177065    0.1800
     48 H48        -7.9931   -1.2944   52.1695 H       1  ZINC000821177065    0.1700
@<TRIPOS>BOND
     1     1     2    2
     2     2     3   am
     3     2    13   am
     4     3     4    1
     5     3    26    1
     6     4     5    1
     7     4    27    1
     8     4    28    1
     9     5     6    1
    10     5     7    1
    11     5    10    1
    12     6    29    1
    13     7     9    1
    14     7     8    1
    15     7    30    1
    16     8     9    1
    17     8    31    1
    18     8    32    1
    19     9    33    1
    20     9    34    1
    21    10    12    1
    22    10    11    1
    23    10    35    1
    24    11    12    1
    25    11    36    1
    26    11    37    1
    27    12    38    1
    28    12    39    1
    29    13    14    1
    30    13    40    1
    31    14    25    1
    32    14    15    2
    33    15    16    1
    34    16    17    1
    35    16    24    1
    36    17    18    1
    37    17    41    1
    38    17    42    1
    39    18    23   ar
    40    18    19   ar
    41    19    20   ar
    42    19    43    1
    43    20    21   ar
    44    20    44    1
    45    21    22   ar
    46    21    45    1
    47    22    23   ar
    48    22    46    1
    49    24    25    2
    50    24    47    1
    51    25    48    1
@<TRIPOS>SUBSTRUCTURE
     1 ZINC000821177065        1 TEMP              0 ****  ****    0 ROOT


##########                                Name:    ZINC000654382142
##########                DOCK_Rotatable_Bonds:                  14
##########                         Heavy_Atoms:                  24
##########                    Molecular_Weight:             379.401
##########                DOCK_Rotatable_Bonds:                  14
##########                       Formal_Charge:          0.00999933
##########                     HBond_Acceptors:                  12
##########                        HBond_Donors:                   2
##########                         Heavy_Atoms:                  24
##########                          Grid_Score:          -34.106514
##########                     Grid_vdw_energy:          -32.066669
##########                      Grid_es_energy:           -2.039843
##########           Internal_energy_repulsive:           13.441478

@<TRIPOS>MOLECULE
ZINC000654382142
 48 47 1 0 0
SMALL
USER_CHARGES


@<TRIPOS>ATOM
      1 C1         -8.0047   -0.1780   62.8665 C.3     1  ZINC000654382142    0.0300
      2 O2         -9.2681   -0.5148   62.2898 O.3     1  ZINC000654382142   -0.3700
      3 C3         -9.3495   -0.2689   60.8845 C.3     1  ZINC000654382142    0.0400
      4 C4         -8.6843   -1.4192   60.1261 C.3     1  ZINC000654382142    0.1400
      5 N5         -9.0200   -1.3250   58.7032 N.am    1  ZINC000654382142   -0.6100
      6 C6         -9.9751   -2.2655   58.1122 C.3     1  ZINC000654382142    0.0800
      7 C7        -11.4006   -1.7676   58.3594 C.3     1  ZINC000654382142    0.0500
      8 H8        -11.3944   -0.6821   58.4583 H       1  ZINC000654382142    0.1400
      9 O9        -11.9078   -2.3525   59.5606 O.3     1  ZINC000654382142   -0.5200
     10 C10       -12.2919   -2.1673   57.1818 C.3     1  ZINC000654382142    0.4200
     11 F11       -11.7728   -1.6279   55.9999 F       1  ZINC000654382142   -0.1800
     12 F12       -12.3319   -3.5620   57.0797 F       1  ZINC000654382142   -0.1700
     13 F13       -13.5859   -1.6775   57.3890 F       1  ZINC000654382142   -0.1800
     14 C14        -8.4502   -0.3732   57.9380 C.2     1  ZINC000654382142    0.7100
     15 O15        -7.6562    0.4064   58.4282 O.2     1  ZINC000654382142   -0.5600
     16 N16        -8.7602   -0.2855   56.6294 N.am    1  ZINC000654382142   -0.7500
     17 C17        -8.1421    0.7503   55.7979 C.3     1  ZINC000654382142    0.1400
     18 C18        -8.3867    0.4323   54.3213 C.3     1  ZINC000654382142   -0.1600
     19 C19        -7.1910    0.9064   53.4928 C.3     1  ZINC000654382142    0.1200
     20 N20        -7.5058    0.7847   52.0672 N.am    1  ZINC000654382142   -1.0000
     21 C21        -7.6724   -0.5401   51.4644 C.3     1  ZINC000654382142    0.0900
     22 S22        -7.6733    2.1445   51.1372 S.o2    1  ZINC000654382142    2.6100
     23 C23        -6.0668    2.9779   51.2604 C.3     1  ZINC000654382142   -0.6800
     24 O24        -7.8772    1.6466   49.8219 O.2     1  ZINC000654382142   -0.9500
     25 O25        -8.6789    2.8999   51.7987 O.2     1  ZINC000654382142   -0.9500
     26 H26        -8.0238   -0.3938   63.9348 H       1  ZINC000654382142    0.0900
     27 H27        -7.2198   -0.7663   62.3911 H       1  ZINC000654382142    0.0400
     28 H28        -7.8067    0.8829   62.7136 H       1  ZINC000654382142    0.0400
     29 H29       -10.3959   -0.1956   60.5884 H       1  ZINC000654382142    0.0500
     30 H30        -8.8390    0.6649   60.6488 H       1  ZINC000654382142    0.0600
     31 H31        -7.6029   -1.3582   60.2491 H       1  ZINC000654382142    0.0900
     32 H32        -9.0418   -2.3699   60.5217 H       1  ZINC000654382142    0.1000
     33 H33        -9.7967   -2.3385   57.0394 H       1  ZINC000654382142    0.1000
     34 H34        -9.8488   -3.2470   58.5692 H       1  ZINC000654382142    0.1000
     35 H35       -12.7989   -2.0592   59.7951 H       1  ZINC000654382142    0.3900
     36 H36        -9.3926   -0.9083   56.2380 H       1  ZINC000654382142    0.3900
     37 H37        -8.5804    1.7189   56.0385 H       1  ZINC000654382142    0.0700
     38 H38        -7.0696    0.7789   55.9906 H       1  ZINC000654382142    0.0700
     39 H39        -8.5111   -0.6433   54.1972 H       1  ZINC000654382142    0.0700
     40 H40        -9.2881    0.9438   53.9841 H       1  ZINC000654382142    0.0800
     41 H41        -6.9751    1.9483   53.7295 H       1  ZINC000654382142    0.0900
     42 H42        -6.3208    0.2929   53.7265 H       1  ZINC000654382142    0.1000
     43 H43        -8.7173   -0.8423   51.5343 H       1  ZINC000654382142    0.0600
     44 H44        -7.3741   -0.5026   50.4166 H       1  ZINC000654382142    0.0700
     45 H45        -7.0495   -1.2611   51.9939 H       1  ZINC000654382142    0.0700
     46 H46        -5.2857    2.3191   50.8809 H       1  ZINC000654382142    0.1300
     47 H47        -6.0868    3.8947   50.6710 H       1  ZINC000654382142    0.1300
     48 H48        -5.8625    3.2207   52.3032 H       1  ZINC000654382142    0.1300
@<TRIPOS>BOND
     1     1     2    1
     2     1    26    1
     3     1    27    1
     4     1    28    1
     5     2     3    1
     6     3     4    1
     7     3    29    1
     8     3    30    1
     9     4     5    1
    10     4    31    1
    11     4    32    1
    12     5     6    1
    13     5    14   am
    14     6     7    1
    15     6    33    1
    16     6    34    1
    17     7     8    1
    18     7     9    1
    19     7    10    1
    20     9    35    1
    21    10    11    1
    22    10    12    1
    23    10    13    1
    24    14    15    2
    25    14    16   am
    26    16    17    1
    27    16    36    1
    28    17    18    1
    29    17    37    1
    30    17    38    1
    31    18    19    1
    32    18    39    1
    33    18    40    1
    34    19    20    1
    35    19    41    1
    36    19    42    1
    37    20    21    1
    38    20    22   am
    39    21    43    1
    40    21    44    1
    41    21    45    1
    42    22    23    1
    43    22    24    2
    44    22    25    2
    45    23    46    1
    46    23    47    1
    47    23    48    1
@<TRIPOS>SUBSTRUCTURE
     1 ZINC000654382142        1 TEMP              0 ****  ****    0 ROOT


##########                                Name:    ZINC001039825450
##########                DOCK_Rotatable_Bonds:                   8
##########                         Heavy_Atoms:                  24
##########                    Molecular_Weight:             337.339
##########                DOCK_Rotatable_Bonds:                   8
##########                       Formal_Charge:           0.0100001
##########                     HBond_Acceptors:                  11
##########                        HBond_Donors:                   4
##########                         Heavy_Atoms:                  24
##########                          Grid_Score:          -34.103813
##########                     Grid_vdw_energy:          -31.394327
##########                      Grid_es_energy:           -2.709487
##########           Internal_energy_repulsive:            7.958969

@<TRIPOS>MOLECULE
ZINC001039825450
 43 45 1 0 0
SMALL
USER_CHARGES


@<TRIPOS>ATOM
      1 O1        -10.6067   -3.6779   58.5859 O.2     1  ZINC001039825450   -0.5100
      2 C2        -10.7493   -2.5461   58.1739 C.2     1  ZINC001039825450    0.5000
      3 C3        -11.3891   -2.3084   56.8304 C.3     1  ZINC001039825450    0.1300
      4 N4        -12.7462   -2.8601   56.8312 N.pl3   1  ZINC001039825450   -0.1500
      5 N5        -13.7832   -2.2499   56.3774 N.2     1  ZINC001039825450   -0.2800
      6 C6        -14.8312   -3.0270   56.5326 C.2     1  ZINC001039825450   -0.0200
      7 C7        -14.3557   -4.1954   57.1321 C.2     1  ZINC001039825450   -0.0200
      8 N8        -13.0619   -4.0229   57.2809 N.2     1  ZINC001039825450   -0.2800
      9 N9        -10.3406   -1.5007   58.9201 N.am    1  ZINC001039825450   -0.7300
     10 C10        -9.7186   -1.7319   60.2262 C.3     1  ZINC001039825450    0.1000
     11 C11        -8.9445   -0.4823   60.6507 C.3     1  ZINC001039825450    0.1100
     12 O12        -7.7854   -0.3060   59.8335 O.3     1  ZINC001039825450   -0.5400
     13 C13        -9.8553    0.7726   60.5963 C.3     1  ZINC001039825450   -0.1600
     14 C14        -9.1791    1.6933   61.6427 C.3     1  ZINC001039825450    0.1000
     15 N15        -8.7273    0.7827   62.7106 N.am    1  ZINC001039825450   -0.6100
     16 C16        -8.5096    1.1259   63.9955 C.2     1  ZINC001039825450    0.5200
     17 O17        -8.6870    2.2703   64.3560 O.2     1  ZINC001039825450   -0.5100
     18 C18        -8.0455    0.0878   64.9844 C.3     1  ZINC001039825450    0.1100
     19 H19        -8.0099   -0.8960   64.5166 H       1  ZINC001039825450    0.1200
     20 C20        -8.9674    0.0666   66.2191 C.3     1  ZINC001039825450    0.1100
     21 N21        -8.0735    0.4185   67.3325 N.am    1  ZINC001039825450   -0.7400
     22 C22        -6.8367    0.6165   66.8581 C.2     1  ZINC001039825450    0.7100
     23 O23        -5.8959    0.9202   67.5659 O.2     1  ZINC001039825450   -0.5800
     24 N24        -6.7283    0.4476   65.5305 N.am    1  ZINC001039825450   -0.7200
     25 C25        -8.5543   -0.5619   62.1417 C.3     1  ZINC001039825450    0.1200
     26 H26       -11.4325   -1.2372   56.6330 H       1  ZINC001039825450    0.1400
     27 H27       -10.7988   -2.7969   56.0552 H       1  ZINC001039825450    0.1400
     28 H28       -15.8513   -2.8071   56.2541 H       1  ZINC001039825450    0.2000
     29 H29       -14.9327   -5.0645   57.4119 H       1  ZINC001039825450    0.2000
     30 H30       -10.4583   -0.5954   58.5922 H       1  ZINC001039825450    0.4000
     31 H31       -10.4916   -1.9483   60.9635 H       1  ZINC001039825450    0.0900
     32 H32        -9.0343   -2.5776   60.1582 H       1  ZINC001039825450    0.0900
     33 H33        -7.2545   -1.1071   59.7260 H       1  ZINC001039825450    0.3800
     34 H34        -9.8358    1.2268   59.6057 H       1  ZINC001039825450    0.0900
     35 H35       -10.8754    0.5280   60.8923 H       1  ZINC001039825450    0.0900
     36 H36        -8.3279    2.2101   61.1995 H       1  ZINC001039825450    0.0800
     37 H37        -9.8977    2.4122   62.0361 H       1  ZINC001039825450    0.0800
     38 H38        -9.7609    0.8069   66.1168 H       1  ZINC001039825450    0.0900
     39 H39        -9.3877   -0.9284   66.3656 H       1  ZINC001039825450    0.1000
     40 H40        -8.3377    0.4951   68.2626 H       1  ZINC001039825450    0.4400
     41 H41        -5.9124    0.5489   65.0158 H       1  ZINC001039825450    0.4400
     42 H42        -9.2039   -1.2690   62.6575 H       1  ZINC001039825450    0.0900
     43 H43        -7.5142   -0.8736   62.2365 H       1  ZINC001039825450    0.0900
@<TRIPOS>BOND
     1     1     2    2
     2     2     3    1
     3     2     9   am
     4     3     4    1
     5     3    26    1
     6     3    27    1
     7     4     8    1
     8     4     5    1
     9     5     6    2
    10     6     7    1
    11     6    28    1
    12     7     8    2
    13     7    29    1
    14     9    10    1
    15     9    30    1
    16    10    11    1
    17    10    31    1
    18    10    32    1
    19    11    25    1
    20    11    12    1
    21    11    13    1
    22    12    33    1
    23    13    14    1
    24    13    34    1
    25    13    35    1
    26    14    15    1
    27    14    36    1
    28    14    37    1
    29    15    16   am
    30    15    25    1
    31    16    17    2
    32    16    18    1
    33    18    19    1
    34    18    24    1
    35    18    20    1
    36    20    21    1
    37    20    38    1
    38    20    39    1
    39    21    22   am
    40    21    40    1
    41    22    23    2
    42    22    24   am
    43    24    41    1
    44    25    42    1
    45    25    43    1
@<TRIPOS>SUBSTRUCTURE
     1 ZINC001039825450        1 TEMP              0 ****  ****    0 ROOT


##########                                Name:    ZINC000572257265
##########                DOCK_Rotatable_Bonds:                  11
##########                         Heavy_Atoms:                  24
##########                    Molecular_Weight:             393.509
##########                DOCK_Rotatable_Bonds:                  11
##########                       Formal_Charge:          -0.0100002
##########                     HBond_Acceptors:                  11
##########                        HBond_Donors:                   3
##########                         Heavy_Atoms:                  24
##########                          Grid_Score:          -34.074699
##########                     Grid_vdw_energy:          -33.357643
##########                      Grid_es_energy:           -0.717057
##########           Internal_energy_repulsive:            8.223354

@<TRIPOS>MOLECULE
ZINC000572257265
 43 43 1 0 0
SMALL
USER_CHARGES


@<TRIPOS>ATOM
      1 C1         -5.0046    4.5686   52.0943 C.3     1  ZINC000572257265   -0.1300
      2 S2         -5.2197    3.0155   51.1821 S.3     1  ZINC000572257265   -0.2200
      3 C3         -6.5196    2.1674   52.1211 C.3     1  ZINC000572257265   -0.1300
      4 C4         -6.8229    0.8177   51.4675 C.3     1  ZINC000572257265    0.1500
      5 C5         -7.4073    1.0466   50.0721 C.3     1  ZINC000572257265   -0.1500
      6 O6         -5.6168    0.0589   51.3601 O.3     1  ZINC000572257265   -0.5400
      7 C7         -7.8329    0.0516   52.3241 C.3     1  ZINC000572257265    0.0900
      8 N8         -9.0862    0.8069   52.3940 N.am    1  ZINC000572257265   -1.1100
      9 S9        -10.5026    0.0291   52.7564 S.o2    1  ZINC000572257265    2.6900
     10 O10       -11.4911    1.0402   52.8969 O.2     1  ZINC000572257265   -0.9400
     11 O11       -10.6166   -1.0467   51.8349 O.2     1  ZINC000572257265   -0.9500
     12 C12       -10.3052   -0.6986   54.3489 C.ar    1  ZINC000572257265   -0.6300
     13 C13        -9.8876    0.0751   55.4155 C.ar    1  ZINC000572257265   -0.0400
     14 C14        -9.7327   -0.4958   56.6649 C.ar    1  ZINC000572257265   -0.0400
     15 C15        -9.9957   -1.8406   56.8476 C.ar    1  ZINC000572257265   -0.6300
     16 S16        -9.7977   -2.5684   58.4400 S.o2    1  ZINC000572257265    2.7000
     17 O17       -10.0205   -3.9621   58.2747 O.2     1  ZINC000572257265   -0.9400
     18 O18        -8.5978   -2.0319   58.9801 O.2     1  ZINC000572257265   -0.9400
     19 N19       -11.0310   -2.0076   59.3922 N.am    1  ZINC000572257265   -1.1200
     20 C20       -12.4229   -2.2671   59.0161 C.3     1  ZINC000572257265    0.2200
     21 C21       -13.2916   -2.0774   60.1893 C.1     1  ZINC000572257265    0.1900
     22 N22       -13.9620   -1.9310   61.0946 N.1     1  ZINC000572257265   -0.3900
     23 C23       -10.4145   -2.6141   55.7813 C.ar    1  ZINC000572257265   -0.0400
     24 C24       -10.5731   -2.0423   54.5328 C.ar    1  ZINC000572257265   -0.0400
     25 H25        -4.7059    4.3495   53.1195 H       1  ZINC000572257265    0.0800
     26 H26        -4.2338    5.1697   51.6118 H       1  ZINC000572257265    0.1000
     27 H27        -5.9449    5.1200   52.0999 H       1  ZINC000572257265    0.0800
     28 H28        -6.1826    2.0077   53.1452 H       1  ZINC000572257265    0.0900
     29 H29        -7.4217    2.7793   52.1266 H       1  ZINC000572257265    0.0900
     30 H30        -6.6877    1.5923   49.4618 H       1  ZINC000572257265    0.0800
     31 H31        -7.6234    0.0850   49.6065 H       1  ZINC000572257265    0.0700
     32 H32        -8.3273    1.6255   50.1540 H       1  ZINC000572257265    0.0800
     33 H33        -4.9307    0.4839   50.8274 H       1  ZINC000572257265    0.3800
     34 H34        -8.0214   -0.9247   51.8777 H       1  ZINC000572257265    0.0900
     35 H35        -7.4313   -0.0797   53.3289 H       1  ZINC000572257265    0.0800
     36 H36        -9.0865    1.7626   52.2281 H       1  ZINC000572257265    0.4300
     37 H37        -9.6821    1.1258   55.2727 H       1  ZINC000572257265    0.1500
     38 H38        -9.4058    0.1086   57.4980 H       1  ZINC000572257265    0.1500
     39 H39       -10.8318   -1.5072   60.1989 H       1  ZINC000572257265    0.4300
     40 H40       -12.7211   -1.5761   58.2277 H       1  ZINC000572257265    0.1100
     41 H41       -12.5170   -3.2916   58.6562 H       1  ZINC000572257265    0.1300
     42 H42       -10.6204   -3.6646   55.9243 H       1  ZINC000572257265    0.1600
     43 H43       -10.9004   -2.6467   53.6997 H       1  ZINC000572257265    0.1500
@<TRIPOS>BOND
     1     1     2    1
     2     1    25    1
     3     1    26    1
     4     1    27    1
     5     2     3    1
     6     3     4    1
     7     3    28    1
     8     3    29    1
     9     4     5    1
    10     4     6    1
    11     4     7    1
    12     5    30    1
    13     5    31    1
    14     5    32    1
    15     6    33    1
    16     7     8    1
    17     7    34    1
    18     7    35    1
    19     8     9   am
    20     8    36    1
    21     9    10    2
    22     9    11    2
    23     9    12    1
    24    12    24   ar
    25    12    13   ar
    26    13    14   ar
    27    13    37    1
    28    14    15   ar
    29    14    38    1
    30    15    16    1
    31    15    23   ar
    32    16    17    2
    33    16    18    2
    34    16    19   am
    35    19    20    1
    36    19    39    1
    37    20    21    1
    38    20    40    1
    39    20    41    1
    40    21    22    3
    41    23    24   ar
    42    23    42    1
    43    24    43    1
@<TRIPOS>SUBSTRUCTURE
     1 ZINC000572257265        1 TEMP              0 ****  ****    0 ROOT


##########                                Name:    ZINC000745364361
##########                DOCK_Rotatable_Bonds:                   8
##########                         Heavy_Atoms:                  29
##########                    Molecular_Weight:             398.434
##########                DOCK_Rotatable_Bonds:                   8
##########                       Formal_Charge:          0.00999923
##########                     HBond_Acceptors:                   7
##########                        HBond_Donors:                   1
##########                         Heavy_Atoms:                  29
##########                          Grid_Score:          -34.058949
##########                     Grid_vdw_energy:          -32.858395
##########                      Grid_es_energy:           -1.200554
##########           Internal_energy_repulsive:           10.109921

@<TRIPOS>MOLECULE
ZINC000745364361
 52 54 1 0 0
SMALL
USER_CHARGES


@<TRIPOS>ATOM
      1 C1        -13.1250   -1.0134   58.8578 C.3     1  ZINC000745364361   -0.1700
      2 C2        -11.6163   -1.2421   58.7459 C.3     1  ZINC000745364361    0.0700
      3 H3        -11.4107   -2.3124   58.7388 H       1  ZINC000745364361    0.1100
      4 O4        -10.9483   -0.6285   59.8798 O.3     1  ZINC000745364361   -0.3200
      5 C5         -9.9485   -1.3220   60.4464 C.2     1  ZINC000745364361    0.4700
      6 O6        -10.0666   -2.5101   60.6316 O.2     1  ZINC000745364361   -0.4900
      7 C7         -8.6786   -0.6188   60.8513 C.3     1  ZINC000745364361   -0.0400
      8 H8         -7.8530   -1.3303   60.8501 H       1  ZINC000745364361    0.1200
      9 C9         -8.3819    0.5086   59.8604 C.3     1  ZINC000745364361   -0.1400
     10 C10        -8.8428   -0.0420   62.2339 C.ar    1  ZINC000745364361   -0.0500
     11 C11        -7.8626   -0.2434   63.1874 C.ar    1  ZINC000745364361   -0.1000
     12 C12        -8.0119    0.2851   64.4563 C.ar    1  ZINC000745364361   -0.0900
     13 C13        -9.1414    1.0155   64.7726 C.ar    1  ZINC000745364361   -0.1500
     14 C14       -10.1239    1.2183   63.8180 C.ar    1  ZINC000745364361    0.1000
     15 F15       -11.2287    1.9322   64.1261 F       1  ZINC000745364361   -0.1400
     16 C16        -9.9709    0.6930   62.5463 C.ar    1  ZINC000745364361   -0.1400
     17 C17       -11.1080   -0.6243   57.4688 C.2     1  ZINC000745364361    0.5200
     18 O18       -11.7150    0.2912   56.9544 O.2     1  ZINC000745364361   -0.5000
     19 N19        -9.9789   -1.0891   56.8983 N.am    1  ZINC000745364361   -0.6700
     20 C20        -9.5064   -0.5148   55.7112 C.ar    1  ZINC000745364361    0.1200
     21 C21        -8.6372    0.5671   55.7613 C.ar    1  ZINC000745364361   -0.1100
     22 C22        -8.1715    1.1330   54.5914 C.ar    1  ZINC000745364361   -0.1400
     23 C23        -8.5720    0.6202   53.3646 C.ar    1  ZINC000745364361    0.1500
     24 N24        -8.0998    1.1947   52.1776 N.am    1  ZINC000745364361   -0.5600
     25 C25        -6.7898    0.9064   51.5819 C.3     1  ZINC000745364361    0.0900
     26 C26        -6.8848    1.3968   50.1202 C.3     1  ZINC000745364361   -0.1300
     27 C27        -7.9816    2.4820   50.2222 C.3     1  ZINC000745364361   -0.1500
     28 C28        -8.7906    2.0766   51.4346 C.2     1  ZINC000745364361    0.5200
     29 O29        -9.8984    2.4924   51.7013 O.2     1  ZINC000745364361   -0.5100
     30 C30        -9.4400   -0.4626   53.3146 C.ar    1  ZINC000745364361   -0.1400
     31 C31        -9.9026   -1.0309   54.4845 C.ar    1  ZINC000745364361   -0.0900
     32 H32       -13.4927   -1.4602   59.7815 H       1  ZINC000745364361    0.0800
     33 H33       -13.3307    0.0571   58.8650 H       1  ZINC000745364361    0.0800
     34 H34       -13.6264   -1.4740   58.0067 H       1  ZINC000745364361    0.0800
     35 H35        -9.2076    1.2202   59.8617 H       1  ZINC000745364361    0.0700
     36 H36        -7.4634    1.0174   60.1533 H       1  ZINC000745364361    0.0800
     37 H37        -8.2632    0.0915   58.8604 H       1  ZINC000745364361    0.0800
     38 H38        -6.9796   -0.8145   62.9412 H       1  ZINC000745364361    0.1300
     39 H39        -7.2455    0.1268   65.2006 H       1  ZINC000745364361    0.1400
     40 H40        -9.2581    1.4276   65.7640 H       1  ZINC000745364361    0.1400
     41 H41       -10.7363    0.8509   61.8009 H       1  ZINC000745364361    0.1400
     42 H42        -9.4935   -1.8212   57.3096 H       1  ZINC000745364361    0.4100
     43 H43        -8.3257    0.9659   56.7154 H       1  ZINC000745364361    0.1300
     44 H44        -7.4961    1.9748   54.6303 H       1  ZINC000745364361    0.1600
     45 H45        -6.0069    1.4490   52.1116 H       1  ZINC000745364361    0.0800
     46 H46        -6.5911   -0.1650   51.6081 H       1  ZINC000745364361    0.0900
     47 H47        -5.9392    1.8276   49.7910 H       1  ZINC000745364361    0.1000
     48 H48        -7.1956    0.5893   49.4572 H       1  ZINC000745364361    0.0900
     49 H49        -7.5334    3.4647   50.3691 H       1  ZINC000745364361    0.1100
     50 H50        -8.6077    2.4767   49.3301 H       1  ZINC000745364361    0.1100
     51 H51        -9.7513   -0.8616   52.3605 H       1  ZINC000745364361    0.1300
     52 H52       -10.5778   -1.8730   54.4455 H       1  ZINC000745364361    0.1400
@<TRIPOS>BOND
     1     1     2    1
     2     1    32    1
     3     1    33    1
     4     1    34    1
     5     2     3    1
     6     2     4    1
     7     2    17    1
     8     4     5    1
     9     5     6    2
    10     5     7    1
    11     7     8    1
    12     7     9    1
    13     7    10    1
    14     9    35    1
    15     9    36    1
    16     9    37    1
    17    10    16   ar
    18    10    11   ar
    19    11    12   ar
    20    11    38    1
    21    12    13   ar
    22    12    39    1
    23    13    14   ar
    24    13    40    1
    25    14    15    1
    26    14    16   ar
    27    16    41    1
    28    17    18    2
    29    17    19   am
    30    19    20    1
    31    19    42    1
    32    20    31   ar
    33    20    21   ar
    34    21    22   ar
    35    21    43    1
    36    22    23   ar
    37    22    44    1
    38    23    24    1
    39    23    30   ar
    40    24    28   am
    41    24    25    1
    42    25    26    1
    43    25    45    1
    44    25    46    1
    45    26    27    1
    46    26    47    1
    47    26    48    1
    48    27    28    1
    49    27    49    1
    50    27    50    1
    51    28    29    2
    52    30    31   ar
    53    30    51    1
    54    31    52    1
@<TRIPOS>SUBSTRUCTURE
     1 ZINC000745364361        1 TEMP              0 ****  ****    0 ROOT


##########                                Name:    ZINC001105194920
##########                DOCK_Rotatable_Bonds:                   8
##########                         Heavy_Atoms:                  25
##########                    Molecular_Weight:             346.392
##########                DOCK_Rotatable_Bonds:                   8
##########                       Formal_Charge:          -0.0100007
##########                     HBond_Acceptors:                  10
##########                        HBond_Donors:                   3
##########                         Heavy_Atoms:                  25
##########                          Grid_Score:          -33.986237
##########                     Grid_vdw_energy:          -34.115803
##########                      Grid_es_energy:            0.129566
##########           Internal_energy_repulsive:            8.540905

@<TRIPOS>MOLECULE
ZINC001105194920
 47 49 1 0 0
SMALL
USER_CHARGES


@<TRIPOS>ATOM
      1 C1         -8.5036    0.1748   65.4318 C.3     1  ZINC001105194920    0.0300
      2 O2         -9.3076   -0.0520   64.2723 O.3     1  ZINC001105194920   -0.3900
      3 C3         -8.6313    0.1964   63.0383 C.3     1  ZINC001105194920    0.0700
      4 C4         -9.5917   -0.0468   61.8724 C.3     1  ZINC001105194920    0.0900
      5 H5         -9.8881   -1.0957   61.8587 H       1  ZINC001105194920    0.0900
      6 C6        -10.8328    0.8317   62.0423 C.3     1  ZINC001105194920   -0.1800
      7 N7         -8.9228    0.2896   60.6085 N.3     1  ZINC001105194920   -0.6800
      8 C8         -8.0430   -0.8026   60.1715 C.3     1  ZINC001105194920    0.1400
      9 C9         -8.8385   -1.7961   59.3646 C.2     1  ZINC001105194920   -0.0200
     10 C10        -9.7295   -1.5155   58.3851 C.2     1  ZINC001105194920   -0.0200
     11 N11       -10.1950   -2.7078   57.9461 N.pl3   1  ZINC001105194920   -0.2800
     12 C12       -11.1853   -2.9045   56.8846 C.3     1  ZINC001105194920    0.1000
     13 C13       -12.0539   -1.6637   56.6095 C.3     1  ZINC001105194920    0.1100
     14 N14       -11.0288   -1.2902   55.6158 N.am    1  ZINC001105194920   -0.6300
     15 C15       -10.6257   -0.1277   55.0656 C.2     1  ZINC001105194920    0.6200
     16 O16       -11.1610    0.9151   55.3881 O.2     1  ZINC001105194920   -0.5400
     17 C17        -9.5336   -0.1207   54.0707 C.ar    1  ZINC001105194920   -0.0600
     18 N18        -9.7481   -0.5762   52.8398 N.ar    1  ZINC001105194920   -0.3700
     19 C19        -8.7720   -0.5687   51.9550 C.ar    1  ZINC001105194920   -0.0200
     20 C20        -7.5171   -0.0871   52.2996 C.ar    1  ZINC001105194920    0.1500
     21 N21        -7.2890    0.3679   53.5181 N.ar    1  ZINC001105194920   -0.5100
     22 C22        -8.2652    0.3722   54.4185 C.ar    1  ZINC001105194920    0.4200
     23 N23        -8.0308    0.8483   55.6954 N.pl3   1  ZINC001105194920   -0.8100
     24 C24       -10.6222   -2.7010   55.4663 C.3     1  ZINC001105194920    0.1100
     25 N25        -9.6180   -3.6394   58.6213 N.2     1  ZINC001105194920   -0.0800
     26 N26        -8.7988   -3.1289   59.4716 N.2     1  ZINC001105194920   -0.2600
     27 H27        -8.1752    1.2140   65.4485 H       1  ZINC001105194920    0.0400
     28 H28        -9.0891   -0.0358   66.3267 H       1  ZINC001105194920    0.0800
     29 H29        -7.6333   -0.4809   65.4043 H       1  ZINC001105194920    0.0400
     30 H30        -8.2859    1.2300   63.0150 H       1  ZINC001105194920    0.0600
     31 H31        -7.7766   -0.4744   62.9510 H       1  ZINC001105194920    0.0500
     32 H32       -10.5363    1.8806   62.0561 H       1  ZINC001105194920    0.0700
     33 H33       -11.5170    0.6585   61.2116 H       1  ZINC001105194920    0.0500
     34 H34       -11.3291    0.5821   62.9800 H       1  ZINC001105194920    0.0600
     35 H35        -9.5962    0.5198   59.8932 H       1  ZINC001105194920    0.3500
     36 H36        -7.2382   -0.3975   59.5580 H       1  ZINC001105194920    0.0900
     37 H37        -7.6197   -1.2994   61.0444 H       1  ZINC001105194920    0.0500
     38 H38       -10.0124   -0.5369   58.0265 H       1  ZINC001105194920    0.1800
     39 H39       -11.7569   -3.8252   57.0019 H       1  ZINC001105194920    0.1500
     40 H40       -13.0253   -1.8954   56.1729 H       1  ZINC001105194920    0.1200
     41 H41       -12.1185   -0.9767   57.4535 H       1  ZINC001105194920    0.1000
     42 H42        -8.9494   -0.9395   50.9564 H       1  ZINC001105194920    0.1800
     43 H43        -6.7229   -0.0847   51.5678 H       1  ZINC001105194920    0.1800
     44 H44        -7.1758    1.2512   55.9134 H       1  ZINC001105194920    0.4000
     45 H45        -8.7213    0.7793   56.3731 H       1  ZINC001105194920    0.4300
     46 H46        -9.5435   -2.8424   55.3975 H       1  ZINC001105194920    0.1100
     47 H47       -11.1729   -3.2375   54.6937 H       1  ZINC001105194920    0.1200
@<TRIPOS>BOND
     1     1     2    1
     2     1    27    1
     3     1    28    1
     4     1    29    1
     5     2     3    1
     6     3     4    1
     7     3    30    1
     8     3    31    1
     9     4     5    1
    10     4     6    1
    11     4     7    1
    12     6    32    1
    13     6    33    1
    14     6    34    1
    15     7     8    1
    16     7    35    1
    17     8     9    1
    18     8    36    1
    19     8    37    1
    20     9    26    1
    21     9    10    2
    22    10    11    1
    23    10    38    1
    24    11    12    1
    25    11    25    1
    26    12    24    1
    27    12    13    1
    28    12    39    1
    29    13    14    1
    30    13    40    1
    31    13    41    1
    32    14    15   am
    33    14    24    1
    34    15    16    2
    35    15    17    1
    36    17    22   ar
    37    17    18   ar
    38    18    19   ar
    39    19    20   ar
    40    19    42    1
    41    20    21   ar
    42    20    43    1
    43    21    22   ar
    44    22    23    1
    45    23    44    1
    46    23    45    1
    47    24    46    1
    48    24    47    1
    49    25    26    2
@<TRIPOS>SUBSTRUCTURE
     1 ZINC001105194920        1 TEMP              0 ****  ****    0 ROOT


##########                                Name:    ZINC000110375116
##########                DOCK_Rotatable_Bonds:                  10
##########                         Heavy_Atoms:                  27
##########                    Molecular_Weight:             396.511
##########                DOCK_Rotatable_Bonds:                  10
##########                       Formal_Charge:        -2.23517e-07
##########                     HBond_Acceptors:                   9
##########                        HBond_Donors:                   0
##########                         Heavy_Atoms:                  27
##########                          Grid_Score:          -33.985588
##########                     Grid_vdw_energy:          -33.467365
##########                      Grid_es_energy:           -0.518223
##########           Internal_energy_repulsive:           25.439236

@<TRIPOS>MOLECULE
ZINC000110375116
 55 56 1 0 0
SMALL
USER_CHARGES


@<TRIPOS>ATOM
      1 C1         -9.9433   -4.1077   58.8956 C.3     1  ZINC000110375116   -0.1700
      2 C2        -10.2384   -2.7832   59.6026 C.3     1  ZINC000110375116    0.1000
      3 N3         -9.8917   -1.6690   58.7168 N.am    1  ZINC000110375116   -0.6200
      4 C4         -8.5301   -1.1286   58.7181 C.3     1  ZINC000110375116    0.1100
      5 C5         -8.4287   -0.0041   59.7506 C.3     1  ZINC000110375116   -0.1700
      6 C6        -10.8255   -1.1412   57.9008 C.2     1  ZINC000110375116    0.5100
      7 O7        -11.9531   -1.5875   57.9008 O.2     1  ZINC000110375116   -0.5300
      8 C8        -10.4683    0.0039   56.9883 C.3     1  ZINC000110375116   -0.1400
      9 C9         -9.9519   -0.5466   55.6574 C.3     1  ZINC000110375116   -0.0900
     10 C10        -9.4212    0.6048   54.8009 C.3     1  ZINC000110375116   -0.1400
     11 C11        -8.9232    0.0641   53.4854 C.2     1  ZINC000110375116    0.5200
     12 O12        -9.0819   -1.1067   53.2118 O.2     1  ZINC000110375116   -0.5300
     13 N13        -8.3014    0.8817   52.6127 N.am    1  ZINC000110375116   -0.6200
     14 C14        -8.0981    2.3016   52.9327 C.3     1  ZINC000110375116    0.0900
     15 C15        -6.6032    2.6222   52.8116 C.3     1  ZINC000110375116    0.1000
     16 N16        -6.1158    2.1096   51.5235 N.am    1  ZINC000110375116   -1.0000
     17 S17        -5.3508    3.1139   50.4518 S.o2    1  ZINC000110375116    2.7000
     18 O18        -4.8786    2.2888   49.3956 O.2     1  ZINC000110375116   -0.9400
     19 O19        -6.2208    4.2183   50.2457 O.2     1  ZINC000110375116   -0.9500
     20 C20        -3.9219    3.7507   51.2625 C.ar    1  ZINC000110375116   -0.7400
     21 C21        -2.6998    3.1083   51.1385 C.ar    1  ZINC000110375116    0.0200
     22 C22        -1.6021    3.6456   51.7939 C.ar    1  ZINC000110375116   -0.1900
     23 C23        -1.7619    4.7955   52.5434 C.ar    1  ZINC000110375116    0.1500
     24 N24        -2.9401    5.3802   52.6390 N.ar    1  ZINC000110375116   -0.4900
     25 C25        -4.0041    4.9005   52.0255 C.ar    1  ZINC000110375116    0.2000
     26 C26        -6.3190    0.6897   51.2035 C.3     1  ZINC000110375116    0.1000
     27 C27        -7.8090    0.3679   51.3269 C.3     1  ZINC000110375116    0.1000
     28 H28       -10.2012   -4.9367   59.5547 H       1  ZINC000110375116    0.0700
     29 H29       -10.5350   -4.1718   57.9825 H       1  ZINC000110375116    0.0600
     30 H30        -8.8835   -4.1581   58.6460 H       1  ZINC000110375116    0.0600
     31 H31       -11.2983   -2.7329   59.8521 H       1  ZINC000110375116    0.0800
     32 H32        -9.6466   -2.7192   60.5157 H       1  ZINC000110375116    0.0800
     33 H33        -7.8252   -1.9201   58.9725 H       1  ZINC000110375116    0.0800
     34 H34        -8.2940   -0.7361   57.7290 H       1  ZINC000110375116    0.0800
     35 H35        -7.4156    0.3980   59.7516 H       1  ZINC000110375116    0.0700
     36 H36        -9.1336    0.7875   59.4961 H       1  ZINC000110375116    0.0500
     37 H37        -8.6647   -0.3967   60.7397 H       1  ZINC000110375116    0.0600
     38 H38       -11.3525    0.6157   56.8099 H       1  ZINC000110375116    0.0900
     39 H39        -9.6935    0.6122   57.4550 H       1  ZINC000110375116    0.0900
     40 H40        -9.1490   -1.2592   55.8460 H       1  ZINC000110375116    0.0800
     41 H41       -10.7650   -1.0462   55.1309 H       1  ZINC000110375116    0.0800
     42 H42       -10.2218    1.3217   54.6194 H       1  ZINC000110375116    0.1000
     43 H43        -8.6024    1.0992   55.3238 H       1  ZINC000110375116    0.1000
     44 H44        -8.6624    2.9186   52.2333 H       1  ZINC000110375116    0.0800
     45 H45        -8.4333    2.4987   53.9510 H       1  ZINC000110375116    0.1000
     46 H46        -6.4557    3.7012   52.8555 H       1  ZINC000110375116    0.1100
     47 H47        -6.0592    2.1428   53.6255 H       1  ZINC000110375116    0.0800
     48 H48        -2.6048    2.2104   50.5460 H       1  ZINC000110375116    0.1500
     49 H49        -0.6348    3.1713   51.7197 H       1  ZINC000110375116    0.1500
     50 H50        -0.9121    5.2201   53.0572 H       1  ZINC000110375116    0.1700
     51 H51        -4.9526    5.4068   52.1272 H       1  ZINC000110375116    0.1700
     52 H52        -5.9838    0.4925   50.1852 H       1  ZINC000110375116    0.1100
     53 H53        -5.7548    0.0727   51.9029 H       1  ZINC000110375116    0.0800
     54 H54        -7.9550   -0.7114   51.2830 H       1  ZINC000110375116    0.1100
     55 H55        -8.3553    0.8468   50.5143 H       1  ZINC000110375116    0.0800
@<TRIPOS>BOND
     1     1     2    1
     2     1    28    1
     3     1    29    1
     4     1    30    1
     5     2     3    1
     6     2    31    1
     7     2    32    1
     8     3     4    1
     9     3     6   am
    10     4     5    1
    11     4    33    1
    12     4    34    1
    13     5    35    1
    14     5    36    1
    15     5    37    1
    16     6     7    2
    17     6     8    1
    18     8     9    1
    19     8    38    1
    20     8    39    1
    21     9    10    1
    22     9    40    1
    23     9    41    1
    24    10    11    1
    25    10    42    1
    26    10    43    1
    27    11    12    2
    28    11    13   am
    29    13    27    1
    30    13    14    1
    31    14    15    1
    32    14    44    1
    33    14    45    1
    34    15    16    1
    35    15    46    1
    36    15    47    1
    37    16    17   am
    38    16    26    1
    39    17    18    2
    40    17    19    2
    41    17    20    1
    42    20    25   ar
    43    20    21   ar
    44    21    22   ar
    45    21    48    1
    46    22    23   ar
    47    22    49    1
    48    23    24   ar
    49    23    50    1
    50    24    25   ar
    51    25    51    1
    52    26    27    1
    53    26    52    1
    54    26    53    1
    55    27    54    1
    56    27    55    1
@<TRIPOS>SUBSTRUCTURE
     1 ZINC000110375116        1 TEMP              0 ****  ****    0 ROOT


##########                                Name:    ZINC000807524472
##########                DOCK_Rotatable_Bonds:                   9
##########                         Heavy_Atoms:                  28
##########                    Molecular_Weight:             410.534
##########                DOCK_Rotatable_Bonds:                   9
##########                       Formal_Charge:           0.0200006
##########                     HBond_Acceptors:                   8
##########                        HBond_Donors:                   0
##########                         Heavy_Atoms:                  28
##########                          Grid_Score:          -33.972942
##########                     Grid_vdw_energy:          -32.624935
##########                      Grid_es_energy:           -1.348007
##########           Internal_energy_repulsive:           13.093128

@<TRIPOS>MOLECULE
ZINC000807524472
 58 60 1 0 0
SMALL
USER_CHARGES


@<TRIPOS>ATOM
      1 C1        -16.5532   -1.9023   57.7991 C.3     1  ZINC000807524472   -0.1500
      2 C2        -15.3076   -1.0168   57.8729 C.3     1  ZINC000807524472    0.0600
      3 O3        -15.0838   -0.4026   56.6023 O.3     1  ZINC000807524472   -0.3800
      4 C4        -14.1460   -1.0977   55.7778 C.3     1  ZINC000807524472    0.0600
      5 C5        -12.7293   -0.6193   56.1018 C.3     1  ZINC000807524472    0.0700
      6 O6        -12.0101   -1.6720   56.7968 O.3     1  ZINC000807524472   -0.3500
      7 C7        -10.9017   -2.1529   56.1997 C.2     1  ZINC000807524472    0.5000
      8 O8        -10.7974   -3.3438   55.9815 O.2     1  ZINC000807524472   -0.4600
      9 C9         -9.8169   -1.2352   55.8118 C.ar    1  ZINC000807524472   -0.1200
     10 C10        -9.4702   -1.0850   54.4663 C.ar    1  ZINC000807524472    0.0400
     11 C11        -8.4549   -0.2246   54.1102 C.ar    1  ZINC000807524472   -0.7000
     12 S12        -8.0205   -0.0368   52.4130 S.o2    1  ZINC000807524472    2.6900
     13 O13        -6.8551   -0.8236   52.2077 O.2     1  ZINC000807524472   -0.9500
     14 O14        -9.2187   -0.2143   51.6700 O.2     1  ZINC000807524472   -0.9500
     15 N15        -7.5645    1.5401   52.1952 N.am    1  ZINC000807524472   -0.9900
     16 C16        -6.2159    1.8699   51.7146 C.3     1  ZINC000807524472    0.1200
     17 C17        -6.3380    2.7770   50.4861 C.3     1  ZINC000807524472   -0.1400
     18 C18        -7.1947    3.9949   50.8395 C.3     1  ZINC000807524472   -0.1200
     19 C19        -8.5977    3.5346   51.2416 C.3     1  ZINC000807524472   -0.1400
     20 C20        -8.5031    2.6360   52.4729 C.3     1  ZINC000807524472    0.1200
     21 C21        -7.7737    0.4943   55.0796 C.ar    1  ZINC000807524472    0.0200
     22 C22        -8.1035    0.3571   56.4125 C.ar    1  ZINC000807524472   -0.1800
     23 C23        -9.1281   -0.5011   56.7912 C.ar    1  ZINC000807524472    0.2000
     24 N24        -9.4621   -0.6407   58.1315 N.3     1  ZINC000807524472   -0.4800
     25 C25        -8.3297   -1.2102   58.9058 C.3     1  ZINC000807524472    0.0400
     26 C26        -8.6599   -0.8079   60.3651 C.3     1  ZINC000807524472   -0.1200
     27 C27        -9.2641    0.6062   60.2055 C.3     1  ZINC000807524472   -0.1300
     28 C28        -9.7499    0.6737   58.7457 C.3     1  ZINC000807524472    0.0400
     29 H29       -16.4061   -2.6739   57.0434 H       1  ZINC000807524472    0.0600
     30 H30       -16.7239   -2.3707   58.7683 H       1  ZINC000807524472    0.0700
     31 H31       -17.4168   -1.2929   57.5328 H       1  ZINC000807524472    0.0700
     32 H32       -15.4547   -0.2451   58.6286 H       1  ZINC000807524472    0.0500
     33 H33       -14.4439   -1.6262   58.1392 H       1  ZINC000807524472    0.0500
     34 H34       -14.2200   -2.1686   55.9668 H       1  ZINC000807524472    0.0600
     35 H35       -14.3661   -0.8977   54.7291 H       1  ZINC000807524472    0.0700
     36 H36       -12.2084   -0.3731   55.1766 H       1  ZINC000807524472    0.0900
     37 H37       -12.7808    0.2655   56.7364 H       1  ZINC000807524472    0.0800
     38 H38        -9.9974   -1.6430   53.7066 H       1  ZINC000807524472    0.1600
     39 H39        -5.6654    2.3893   52.4991 H       1  ZINC000807524472    0.0800
     40 H40        -5.6910    0.9543   51.4421 H       1  ZINC000807524472    0.0900
     41 H41        -5.3462    3.1070   50.1775 H       1  ZINC000807524472    0.0800
     42 H42        -6.8083    2.2253   49.6720 H       1  ZINC000807524472    0.0700
     43 H43        -6.7369    4.5322   51.6701 H       1  ZINC000807524472    0.0700
     44 H44        -7.2629    4.6543   49.9743 H       1  ZINC000807524472    0.0700
     45 H45        -9.2141    4.4039   51.4706 H       1  ZINC000807524472    0.0800
     46 H46        -9.0466    2.9759   50.4204 H       1  ZINC000807524472    0.0700
     47 H47        -9.4868    2.2268   52.7031 H       1  ZINC000807524472    0.0900
     48 H48        -8.1384    3.2154   53.3210 H       1  ZINC000807524472    0.0800
     49 H49        -6.9793    1.1662   54.7899 H       1  ZINC000807524472    0.1500
     50 H50        -7.5673    0.9207   57.1616 H       1  ZINC000807524472    0.1400
     51 H51        -8.3003   -2.2950   58.8030 H       1  ZINC000807524472    0.0900
     52 H52        -7.3856   -0.7671   58.5888 H       1  ZINC000807524472    0.0500
     53 H53        -9.3894   -1.4923   60.7981 H       1  ZINC000807524472    0.0800
     54 H54        -7.7541   -0.7743   60.9704 H       1  ZINC000807524472    0.0800
     55 H55       -10.1022    0.7390   60.8896 H       1  ZINC000807524472    0.0800
     56 H56        -8.5031    1.3653   60.3865 H       1  ZINC000807524472    0.0700
     57 H57        -9.2137    1.4584   58.2118 H       1  ZINC000807524472    0.0500
     58 H58       -10.8219    0.8690   58.7198 H       1  ZINC000807524472    0.0900
@<TRIPOS>BOND
     1     1     2    1
     2     1    29    1
     3     1    30    1
     4     1    31    1
     5     2     3    1
     6     2    32    1
     7     2    33    1
     8     3     4    1
     9     4     5    1
    10     4    34    1
    11     4    35    1
    12     5     6    1
    13     5    36    1
    14     5    37    1
    15     6     7    1
    16     7     8    2
    17     7     9    1
    18     9    23   ar
    19     9    10   ar
    20    10    11   ar
    21    10    38    1
    22    11    12    1
    23    11    21   ar
    24    12    13    2
    25    12    14    2
    26    12    15   am
    27    15    20    1
    28    15    16    1
    29    16    17    1
    30    16    39    1
    31    16    40    1
    32    17    18    1
    33    17    41    1
    34    17    42    1
    35    18    19    1
    36    18    43    1
    37    18    44    1
    38    19    20    1
    39    19    45    1
    40    19    46    1
    41    20    47    1
    42    20    48    1
    43    21    22   ar
    44    21    49    1
    45    22    23   ar
    46    22    50    1
    47    23    24    1
    48    24    28    1
    49    24    25    1
    50    25    26    1
    51    25    51    1
    52    25    52    1
    53    26    27    1
    54    26    53    1
    55    26    54    1
    56    27    28    1
    57    27    55    1
    58    27    56    1
    59    28    57    1
    60    28    58    1
@<TRIPOS>SUBSTRUCTURE
     1 ZINC000807524472        1 TEMP              0 ****  ****    0 ROOT


##########                                Name:    ZINC000981048968
##########                DOCK_Rotatable_Bonds:                   7
##########                         Heavy_Atoms:                  25
##########                    Molecular_Weight:             344.414
##########                DOCK_Rotatable_Bonds:                   7
##########                       Formal_Charge:                0.02
##########                     HBond_Acceptors:                   7
##########                        HBond_Donors:                   2
##########                         Heavy_Atoms:                  25
##########                          Grid_Score:          -33.960236
##########                     Grid_vdw_energy:          -34.830704
##########                      Grid_es_energy:            0.870468
##########           Internal_energy_repulsive:            5.069366

@<TRIPOS>MOLECULE
ZINC000981048968
 49 52 1 0 0
SMALL
USER_CHARGES


@<TRIPOS>ATOM
      1 C1        -10.7160   -2.9447   58.7458 C.3     1  ZINC000981048968   -0.0800
      2 C2        -10.2966   -2.3428   57.4293 C.2     1  ZINC000981048968   -0.0100
      3 C3         -9.5930   -1.2100   57.2810 C.2     1  ZINC000981048968   -0.1600
      4 C4         -9.4250   -1.0255   55.8321 C.2     1  ZINC000981048968   -0.2300
      5 C5         -8.7206    0.0746   55.1498 C.2     1  ZINC000981048968    0.5900
      6 O6         -8.2315    0.9790   55.7994 O.2     1  ZINC000981048968   -0.5300
      7 N7         -8.6184    0.0785   53.8059 N.am    1  ZINC000981048968   -0.7300
      8 C8         -7.9197    1.1730   53.1276 C.3     1  ZINC000981048968    0.1500
      9 H9         -7.3745    1.7663   53.8616 H       1  ZINC000981048968    0.0900
     10 C10        -8.9382    2.0606   52.4094 C.3     1  ZINC000981048968   -0.1300
     11 C11        -8.2086    3.2037   51.7009 C.3     1  ZINC000981048968   -0.1200
     12 C12        -7.2258    2.6264   50.6802 C.3     1  ZINC000981048968   -0.1100
     13 C13        -6.2073    1.7388   51.3984 C.3     1  ZINC000981048968    0.1000
     14 H14        -5.6621    2.3321   52.1325 H       1  ZINC000981048968    0.0500
     15 N15        -5.2637    1.1846   50.4184 N.3     1  ZINC000981048968   -0.6800
     16 C16        -4.2799    2.1943   50.0054 C.3     1  ZINC000981048968    0.1500
     17 C17        -3.1415    1.5207   49.2836 C.2     1  ZINC000981048968    0.1800
     18 N18        -3.1828    1.0100   48.0894 N.2     1  ZINC000981048968   -0.3800
     19 O19        -2.1027    0.5429   47.7950 O.3     1  ZINC000981048968    0.0800
     20 C20        -1.2438    0.7166   48.8039 C.2     1  ZINC000981048968    0.2100
     21 C21         0.1985    0.2811   48.8399 C.3     1  ZINC000981048968   -0.0800
     22 C22         1.2261    1.1829   48.1530 C.3     1  ZINC000981048968   -0.1600
     23 C23         1.1675    1.1150   49.6805 C.3     1  ZINC000981048968   -0.1500
     24 N24        -1.8943    1.3429   49.7548 N.2     1  ZINC000981048968   -0.4600
     25 C25        -6.9369    0.5958   52.1068 C.3     1  ZINC000981048968   -0.1300
     26 C26       -10.0566   -2.0861   55.2512 C.2     1  ZINC000981048968    0.0200
     27 O27       -10.5622   -2.8573   56.2186 O.3     1  ZINC000981048968   -0.1700
     28 H28       -11.2707   -3.8653   58.5641 H       1  ZINC000981048968    0.0800
     29 H29        -9.8311   -3.1656   59.3427 H       1  ZINC000981048968    0.0900
     30 H30       -11.3495   -2.2387   59.2827 H       1  ZINC000981048968    0.0900
     31 H31        -9.2254   -0.5651   58.0655 H       1  ZINC000981048968    0.1600
     32 H32        -9.0074   -0.6434   53.2878 H       1  ZINC000981048968    0.4000
     33 H33        -9.4834    1.4673   51.6752 H       1  ZINC000981048968    0.0700
     34 H34        -9.6383    2.4719   53.1365 H       1  ZINC000981048968    0.0700
     35 H35        -8.9342    3.8361   51.1893 H       1  ZINC000981048968    0.0700
     36 H36        -7.6633    3.7970   52.4350 H       1  ZINC000981048968    0.0600
     37 H37        -7.7710    2.0331   49.9462 H       1  ZINC000981048968    0.0700
     38 H38        -6.7060    3.4408   50.1755 H       1  ZINC000981048968    0.0700
     39 H39        -4.8065    0.3618   50.7820 H       1  ZINC000981048968    0.3500
     40 H40        -4.7563    2.9148   49.3405 H       1  ZINC000981048968    0.1100
     41 H41        -3.8973    2.7103   50.8860 H       1  ZINC000981048968    0.0600
     42 H42         0.3658   -0.7952   48.7988 H       1  ZINC000981048968    0.1500
     43 H43         2.0696    0.6999   47.6598 H       1  ZINC000981048968    0.1200
     44 H44         0.8589    2.0911   47.6751 H       1  ZINC000981048968    0.1100
     45 H45         0.7618    1.9786   50.2073 H       1  ZINC000981048968    0.1000
     46 H46         1.9725    0.5874   50.1920 H       1  ZINC000981048968    0.1200
     47 H47        -6.2114   -0.0366   52.6185 H       1  ZINC000981048968    0.0700
     48 H48        -7.4821    0.0025   51.3728 H       1  ZINC000981048968    0.0800
     49 H49       -10.1320   -2.2726   54.1901 H       1  ZINC000981048968    0.2100
@<TRIPOS>BOND
     1     1     2    1
     2     1    28    1
     3     1    29    1
     4     1    30    1
     5     2    27    1
     6     2     3    2
     7     3     4    1
     8     3    31    1
     9     4     5    1
    10     4    26    2
    11     5     6    2
    12     5     7   am
    13     7     8    1
    14     7    32    1
    15     8     9    1
    16     8    25    1
    17     8    10    1
    18    10    11    1
    19    10    33    1
    20    10    34    1
    21    11    12    1
    22    11    35    1
    23    11    36    1
    24    12    13    1
    25    12    37    1
    26    12    38    1
    27    13    14    1
    28    13    15    1
    29    13    25    1
    30    15    16    1
    31    15    39    1
    32    16    17    1
    33    16    40    1
    34    16    41    1
    35    17    24    1
    36    17    18    2
    37    18    19    1
    38    19    20    1
    39    20    21    1
    40    20    24    2
    41    21    23    1
    42    21    22    1
    43    21    42    1
    44    22    23    1
    45    22    43    1
    46    22    44    1
    47    23    45    1
    48    23    46    1
    49    25    47    1
    50    25    48    1
    51    26    27    1
    52    26    49    1
@<TRIPOS>SUBSTRUCTURE
     1 ZINC000981048968        1 TEMP              0 ****  ****    0 ROOT


##########                                Name:    ZINC000623695407
##########                DOCK_Rotatable_Bonds:                  10
##########                         Heavy_Atoms:                  27
##########                    Molecular_Weight:             368.479
##########                DOCK_Rotatable_Bonds:                  10
##########                       Formal_Charge:           0.0299989
##########                     HBond_Acceptors:                   6
##########                        HBond_Donors:                   2
##########                         Heavy_Atoms:                  27
##########                          Grid_Score:          -33.820824
##########                     Grid_vdw_energy:          -33.402157
##########                      Grid_es_energy:           -0.418667
##########           Internal_energy_repulsive:           10.614846

@<TRIPOS>MOLECULE
ZINC000623695407
 55 57 1 0 0
SMALL
USER_CHARGES


@<TRIPOS>ATOM
      1 C1         -6.8564    1.3366   66.9708 C.3     1  ZINC000623695407    0.0300
      2 O2         -7.9758    0.5240   66.6119 O.3     1  ZINC000623695407   -0.3200
      3 C3         -8.3957    0.5875   65.3209 C.ar    1  ZINC000623695407    0.1300
      4 C4         -9.6190    1.1662   65.0159 C.ar    1  ZINC000623695407   -0.2100
      5 C5        -10.0434    1.2300   63.7027 C.ar    1  ZINC000623695407   -0.0600
      6 C6         -9.2501    0.7173   62.6930 C.ar    1  ZINC000623695407   -0.1100
      7 C7         -9.7156    0.7877   61.2614 C.3     1  ZINC000623695407    0.0600
      8 N8         -9.4495   -0.4949   60.5964 N.3     1  ZINC000623695407   -0.4600
      9 C9        -10.4537   -1.5058   60.9768 C.3     1  ZINC000623695407    0.0000
     10 C10       -10.4718   -1.9588   59.5102 C.3     1  ZINC000623695407   -0.1300
     11 C11       -10.0249   -0.5156   59.2386 C.3     1  ZINC000623695407    0.0100
     12 H12       -10.8549    0.1788   59.1080 H       1  ZINC000623695407    0.0900
     13 C13        -8.9772   -0.4004   58.1295 C.3     1  ZINC000623695407    0.1600
     14 N14        -9.6462   -0.3752   56.8264 N.am    1  ZINC000623695407   -0.7400
     15 C15        -8.9309   -0.1532   55.7059 C.2     1  ZINC000623695407    0.7100
     16 O16        -7.7307    0.0276   55.7766 O.2     1  ZINC000623695407   -0.5900
     17 N17        -9.5462   -0.1317   54.5069 N.am    1  ZINC000623695407   -0.7400
     18 C18        -8.7684    0.1079   53.2888 C.3     1  ZINC000623695407    0.1700
     19 H19        -7.8768   -0.5191   53.2978 H       1  ZINC000623695407    0.0900
     20 C20        -9.6200   -0.2338   52.0644 C.3     1  ZINC000623695407   -0.1600
     21 C21        -8.3559    1.5800   53.2284 C.3     1  ZINC000623695407   -0.0900
     22 C22        -7.5409    1.8228   51.9843 C.ar    1  ZINC000623695407   -0.0300
     23 C23        -6.1940    1.4969   51.9434 C.ar    1  ZINC000623695407   -0.1700
     24 C24        -5.4786    1.7339   50.7849 C.ar    1  ZINC000623695407    0.1000
     25 N25        -6.0627    2.2636   49.7280 N.ar    1  ZINC000623695407   -0.4900
     26 C26        -7.3414    2.5860   49.7309 C.ar    1  ZINC000623695407    0.1000
     27 C27        -8.1216    2.3722   50.8514 C.ar    1  ZINC000623695407   -0.1700
     28 C28        -8.0302    0.1404   62.9945 C.ar    1  ZINC000623695407   -0.0700
     29 C29        -7.5990    0.0788   64.3054 C.ar    1  ZINC000623695407   -0.1500
     30 H30        -6.6256    1.1915   68.0261 H       1  ZINC000623695407    0.1000
     31 H31        -5.9936    1.0532   66.3679 H       1  ZINC000623695407    0.0600
     32 H32        -7.0961    2.3848   66.7919 H       1  ZINC000623695407    0.0600
     33 H33       -10.2393    1.5662   65.8043 H       1  ZINC000623695407    0.1300
     34 H34       -10.9956    1.6805   63.4647 H       1  ZINC000623695407    0.1200
     35 H35       -10.7855    0.9945   61.2370 H       1  ZINC000623695407    0.0600
     36 H36        -9.1798    1.5833   60.7438 H       1  ZINC000623695407    0.0700
     37 H37       -10.0700   -2.2631   61.6605 H       1  ZINC000623695407    0.0900
     38 H38       -11.3981   -1.0757   61.3102 H       1  ZINC000623695407    0.0700
     39 H39        -9.7222   -2.7117   59.2663 H       1  ZINC000623695407    0.1000
     40 H40       -11.4648   -2.1978   59.1292 H       1  ZINC000623695407    0.0800
     41 H41        -8.4065    0.5187   58.2628 H       1  ZINC000623695407    0.0700
     42 H42        -8.3037   -1.2563   58.1757 H       1  ZINC000623695407    0.0700
     43 H43       -10.6039   -0.5183   56.7701 H       1  ZINC000623695407    0.3900
     44 H44       -10.5039   -0.2748   54.4506 H       1  ZINC000623695407    0.3900
     45 H45        -9.0411   -0.0554   51.1582 H       1  ZINC000623695407    0.0700
     46 H46        -9.9137   -1.2825   52.1075 H       1  ZINC000623695407    0.0700
     47 H47       -10.5115    0.3933   52.0555 H       1  ZINC000623695407    0.0600
     48 H48        -9.2476    2.2066   53.2067 H       1  ZINC000623695407    0.1000
     49 H49        -7.7599    1.8267   54.1071 H       1  ZINC000623695407    0.0800
     50 H50        -5.7097    1.0635   52.8060 H       1  ZINC000623695407    0.1300
     51 H51        -4.4289    1.4829   50.7449 H       1  ZINC000623695407    0.1500
     52 H52        -7.7850    3.0182   48.8462 H       1  ZINC000623695407    0.1600
     53 H53        -9.1685    2.6379   50.8477 H       1  ZINC000623695407    0.1400
     54 H54        -7.4123   -0.2592   62.2038 H       1  ZINC000623695407    0.1200
     55 H55        -6.6461   -0.3718   64.5404 H       1  ZINC000623695407    0.1300
@<TRIPOS>BOND
     1     1     2    1
     2     1    30    1
     3     1    31    1
     4     1    32    1
     5     2     3    1
     6     3    29   ar
     7     3     4   ar
     8     4     5   ar
     9     4    33    1
    10     5     6   ar
    11     5    34    1
    12     6     7    1
    13     6    28   ar
    14     7     8    1
    15     7    35    1
    16     7    36    1
    17     8    11    1
    18     8     9    1
    19     9    10    1
    20     9    37    1
    21     9    38    1
    22    10    11    1
    23    10    39    1
    24    10    40    1
    25    11    12    1
    26    11    13    1
    27    13    14    1
    28    13    41    1
    29    13    42    1
    30    14    15   am
    31    14    43    1
    32    15    16    2
    33    15    17   am
    34    17    18    1
    35    17    44    1
    36    18    19    1
    37    18    20    1
    38    18    21    1
    39    20    45    1
    40    20    46    1
    41    20    47    1
    42    21    22    1
    43    21    48    1
    44    21    49    1
    45    22    27   ar
    46    22    23   ar
    47    23    24   ar
    48    23    50    1
    49    24    25   ar
    50    24    51    1
    51    25    26   ar
    52    26    27   ar
    53    26    52    1
    54    27    53    1
    55    28    29   ar
    56    28    54    1
    57    29    55    1
@<TRIPOS>SUBSTRUCTURE
     1 ZINC000623695407        1 TEMP              0 ****  ****    0 ROOT


##########                                Name:    ZINC001077846158
##########                DOCK_Rotatable_Bonds:                   7
##########                         Heavy_Atoms:                  24
##########                    Molecular_Weight:             350.442
##########                DOCK_Rotatable_Bonds:                   7
##########                       Formal_Charge:          -0.0600002
##########                     HBond_Acceptors:                   8
##########                        HBond_Donors:                   2
##########                         Heavy_Atoms:                  24
##########                          Grid_Score:          -33.811436
##########                     Grid_vdw_energy:          -32.811478
##########                      Grid_es_energy:           -0.999958
##########           Internal_energy_repulsive:            6.371503

@<TRIPOS>MOLECULE
ZINC001077846158
 46 48 1 0 0
SMALL
USER_CHARGES


@<TRIPOS>ATOM
      1 C1         -2.9204    1.2764   49.2013 C.3     1  ZINC001077846158   -0.0700
      2 C2         -3.1970    2.3769   50.1930 C.2     1  ZINC001077846158    0.0100
      3 C3         -4.4065    2.7642   50.6305 C.2     1  ZINC001077846158   -0.0500
      4 C4         -5.7350    2.1810   50.2228 C.3     1  ZINC001077846158    0.1300
      5 N5         -6.6301    2.1409   51.3869 N.3     1  ZINC001077846158   -0.5100
      6 C6         -8.0520    2.0731   50.9629 C.3     1  ZINC001077846158    0.0000
      7 C7         -8.7702    1.5182   52.2187 C.3     1  ZINC001077846158    0.1000
      8 H8         -8.9528    2.3133   52.9416 H       1  ZINC001077846158    0.0800
      9 O9         -9.9939    0.8744   51.8581 O.3     1  ZINC001077846158   -0.5600
     10 C10        -7.7530    0.4957   52.7752 C.3     1  ZINC001077846158    0.1400
     11 H11        -8.0054   -0.5101   52.4397 H       1  ZINC001077846158    0.1100
     12 N12        -7.7258    0.5508   54.2390 N.am    1  ZINC001077846158   -0.7000
     13 C13        -8.6245   -0.1520   54.9566 C.2     1  ZINC001077846158    0.6000
     14 O14        -9.4589   -0.8309   54.3889 O.2     1  ZINC001077846158   -0.5300
     15 C15        -8.5961   -0.0981   56.4279 C.2     1  ZINC001077846158    0.0100
     16 C16        -7.7196    0.6612   57.1231 C.2     1  ZINC001077846158   -0.2300
     17 S17        -8.0101    0.4491   58.7942 S.3     1  ZINC001077846158    0.2300
     18 C18        -9.2843   -0.6403   58.4688 C.2     1  ZINC001077846158    0.0300
     19 C19       -10.1176   -1.3255   59.5211 C.3     1  ZINC001077846158   -0.0200
     20 C20       -11.4863   -1.6804   58.9367 C.3     1  ZINC001077846158   -0.1500
     21 C21        -9.4114   -2.6032   59.9788 C.3     1  ZINC001077846158   -0.1500
     22 N22        -9.4375   -0.7905   57.2003 N.2     1  ZINC001077846158   -0.4500
     23 C23        -6.3924    0.9264   52.1968 C.3     1  ZINC001077846158    0.0300
     24 O24        -4.2086    3.7721   51.5026 O.3     1  ZINC001077846158   -0.2100
     25 C25        -2.8889    3.9865   51.5867 C.2     1  ZINC001077846158    0.1800
     26 N26        -2.2770    3.1443   50.8038 N.2     1  ZINC001077846158   -0.4900
     27 H27        -2.7975    0.3320   49.7315 H       1  ZINC001077846158    0.0800
     28 H28        -3.7554    1.1962   48.5052 H       1  ZINC001077846158    0.0700
     29 H29        -2.0083    1.5049   48.6499 H       1  ZINC001077846158    0.0700
     30 H30        -6.1798    2.7999   49.4436 H       1  ZINC001077846158    0.0600
     31 H31        -5.5868    1.1699   49.8435 H       1  ZINC001077846158    0.1100
     32 H32        -8.4265    3.0656   50.7126 H       1  ZINC001077846158    0.0900
     33 H33        -8.1699    1.3923   50.1200 H       1  ZINC001077846158    0.0600
     34 H34       -10.6487    1.4668   51.4638 H       1  ZINC001077846158    0.3900
     35 H35        -7.0611    1.0931   54.6917 H       1  ZINC001077846158    0.4100
     36 H36        -6.9603    1.2974   56.6930 H       1  ZINC001077846158    0.1900
     37 H37       -10.2483   -0.6576   60.3727 H       1  ZINC001077846158    0.1000
     38 H38       -11.9893   -0.7701   58.6106 H       1  ZINC001077846158    0.0600
     39 H39       -11.3556   -2.3482   58.0851 H       1  ZINC001077846158    0.0600
     40 H40       -12.0889   -2.1759   59.6979 H       1  ZINC001077846158    0.0700
     41 H41        -8.4364   -2.3503   60.3952 H       1  ZINC001077846158    0.0600
     42 H42       -10.0142   -3.0988   60.7399 H       1  ZINC001077846158    0.0700
     43 H43        -9.2807   -3.2710   59.1273 H       1  ZINC001077846158    0.0600
     44 H44        -5.9888    0.1334   51.5672 H       1  ZINC001077846158    0.0600
     45 H45        -5.6985    1.1503   53.0070 H       1  ZINC001077846158    0.0900
     46 H46        -2.4108    4.7320   52.2049 H       1  ZINC001077846158    0.2500
@<TRIPOS>BOND
     1     1     2    1
     2     1    27    1
     3     1    28    1
     4     1    29    1
     5     2    26    1
     6     2     3    2
     7     3     4    1
     8     3    24    1
     9     4     5    1
    10     4    30    1
    11     4    31    1
    12     5    23    1
    13     5     6    1
    14     6     7    1
    15     6    32    1
    16     6    33    1
    17     7     8    1
    18     7     9    1
    19     7    10    1
    20     9    34    1
    21    10    11    1
    22    10    12    1
    23    10    23    1
    24    12    13   am
    25    12    35    1
    26    13    14    2
    27    13    15    1
    28    15    22    1
    29    15    16    2
    30    16    17    1
    31    16    36    1
    32    17    18    1
    33    18    19    1
    34    18    22    2
    35    19    20    1
    36    19    21    1
    37    19    37    1
    38    20    38    1
    39    20    39    1
    40    20    40    1
    41    21    41    1
    42    21    42    1
    43    21    43    1
    44    23    44    1
    45    23    45    1
    46    24    25    1
    47    25    26    2
    48    25    46    1
@<TRIPOS>SUBSTRUCTURE
     1 ZINC001077846158        1 TEMP              0 ****  ****    0 ROOT


##########                                Name:    ZINC000489986384
##########                DOCK_Rotatable_Bonds:                  11
##########                         Heavy_Atoms:                  31
##########                    Molecular_Weight:             415.492
##########                DOCK_Rotatable_Bonds:                  11
##########                       Formal_Charge:          -0.0499997
##########                     HBond_Acceptors:                   6
##########                        HBond_Donors:                   2
##########                         Heavy_Atoms:                  31
##########                          Grid_Score:          -33.772217
##########                     Grid_vdw_energy:          -33.975815
##########                      Grid_es_energy:            0.203597
##########           Internal_energy_repulsive:           16.544010

@<TRIPOS>MOLECULE
ZINC000489986384
 56 59 1 0 0
SMALL
USER_CHARGES


@<TRIPOS>ATOM
      1 O1        -11.3503   -2.4361   60.8114 O.2     1  ZINC000489986384   -0.5000
      2 C2        -10.9703   -1.7674   59.8736 C.2     1  ZINC000489986384    0.4900
      3 C3         -9.6655   -2.0948   59.1944 C.3     1  ZINC000489986384    0.0900
      4 N4         -8.9137   -0.8595   58.9596 N.pl3   1  ZINC000489986384   -0.4700
      5 C5         -8.6516   -0.2817   57.7335 C.ar    1  ZINC000489986384    0.0700
      6 C6         -8.9628   -0.6133   56.4222 C.ar    1  ZINC000489986384   -0.1100
      7 C7         -8.5377    0.1998   55.3927 C.ar    1  ZINC000489986384   -0.0900
      8 C8         -7.8015    1.3450   55.6595 C.ar    1  ZINC000489986384   -0.1300
      9 C9         -7.4853    1.6869   56.9440 C.ar    1  ZINC000489986384   -0.0600
     10 C10        -7.9061    0.8788   58.0031 C.ar    1  ZINC000489986384    0.0500
     11 N11        -7.7549    0.9473   59.3508 N.2     1  ZINC000489986384   -0.4600
     12 C12        -8.3497   -0.0659   59.9097 C.2     1  ZINC000489986384    0.2800
     13 C13        -8.3971   -0.3283   61.3929 C.3     1  ZINC000489986384    0.1400
     14 O14        -8.3446    0.9133   62.0984 O.3     1  ZINC000489986384   -0.3000
     15 C15        -8.4481    0.8586   63.4523 C.ar    1  ZINC000489986384    0.1300
     16 C16        -9.5215    1.4611   64.0919 C.ar    1  ZINC000489986384   -0.2100
     17 C17        -9.6247    1.4037   65.4684 C.ar    1  ZINC000489986384   -0.0800
     18 C18        -8.6590    0.7467   66.2084 C.ar    1  ZINC000489986384   -0.1600
     19 C19        -7.5880    0.1457   65.5732 C.ar    1  ZINC000489986384   -0.0800
     20 C20        -7.4835    0.1951   64.1966 C.ar    1  ZINC000489986384   -0.1500
     21 N21       -11.7177   -0.7351   59.4352 N.am    1  ZINC000489986384   -0.7300
     22 C22       -12.9861   -0.4169   60.0955 C.3     1  ZINC000489986384    0.1300
     23 C23       -14.1206   -0.4635   59.0700 C.3     1  ZINC000489986384   -0.0600
     24 H24       -15.0736   -0.3047   59.5748 H       1  ZINC000489986384    0.0900
     25 C25       -13.9084    0.6331   58.0244 C.3     1  ZINC000489986384    0.0800
     26 O26       -14.9144    0.5298   57.0148 O.3     1  ZINC000489986384   -0.5700
     27 C27       -14.1297   -1.8092   58.3918 C.ar    1  ZINC000489986384   -0.0700
     28 C28       -13.3088   -2.0405   57.3039 C.ar    1  ZINC000489986384   -0.1100
     29 C29       -13.3172   -3.2750   56.6817 C.ar    1  ZINC000489986384   -0.1200
     30 C30       -14.1462   -4.2782   57.1477 C.ar    1  ZINC000489986384   -0.1200
     31 C31       -14.9664   -4.0472   58.2362 C.ar    1  ZINC000489986384   -0.1200
     32 C32       -14.9550   -2.8142   58.8610 C.ar    1  ZINC000489986384   -0.1100
     33 H33        -9.0815   -2.7601   59.8306 H       1  ZINC000489986384    0.1200
     34 H34        -9.8647   -2.5854   58.2417 H       1  ZINC000489986384    0.1200
     35 H35        -9.5351   -1.5040   56.2090 H       1  ZINC000489986384    0.1200
     36 H36        -8.7791   -0.0570   54.3719 H       1  ZINC000489986384    0.1300
     37 H37        -7.4746    1.9724   54.8434 H       1  ZINC000489986384    0.1300
     38 H38        -6.9110    2.5802   57.1403 H       1  ZINC000489986384    0.1300
     39 H39        -9.3226   -0.8481   61.6406 H       1  ZINC000489986384    0.0800
     40 H40        -7.5458   -0.9455   61.6801 H       1  ZINC000489986384    0.1000
     41 H41       -10.2757    1.9750   63.5145 H       1  ZINC000489986384    0.1300
     42 H42       -10.4601    1.8726   65.9669 H       1  ZINC000489986384    0.1300
     43 H43        -8.7413    0.7031   67.2844 H       1  ZINC000489986384    0.1200
     44 H44        -6.8348   -0.3667   66.1535 H       1  ZINC000489986384    0.1300
     45 H45        -6.6467   -0.2746   63.7009 H       1  ZINC000489986384    0.1300
     46 H46       -11.4156   -0.2028   58.6826 H       1  ZINC000489986384    0.4000
     47 H47       -13.1784   -1.1451   60.8833 H       1  ZINC000489986384    0.0800
     48 H48       -12.9295    0.5815   60.5294 H       1  ZINC000489986384    0.0800
     49 H49       -13.9738    1.6098   58.5038 H       1  ZINC000489986384    0.0500
     50 H50       -12.9245    0.5166   57.5702 H       1  ZINC000489986384    0.0500
     51 H51       -14.9198   -0.3183   56.5502 H       1  ZINC000489986384    0.3800
     52 H52       -12.6612   -1.2567   56.9398 H       1  ZINC000489986384    0.1200
     53 H53       -12.6764   -3.4554   55.8314 H       1  ZINC000489986384    0.1200
     54 H54       -14.1532   -5.2424   56.6613 H       1  ZINC000489986384    0.1200
     55 H55       -15.6143   -4.8310   58.6001 H       1  ZINC000489986384    0.1200
     56 H56       -15.5958   -2.6337   59.7114 H       1  ZINC000489986384    0.1200
@<TRIPOS>BOND
     1     1     2    2
     2     2     3    1
     3     2    21   am
     4     3     4    1
     5     3    33    1
     6     3    34    1
     7     4    12    1
     8     4     5    1
     9     5    10   ar
    10     5     6   ar
    11     6     7   ar
    12     6    35    1
    13     7     8   ar
    14     7    36    1
    15     8     9   ar
    16     8    37    1
    17     9    10   ar
    18     9    38    1
    19    10    11    1
    20    11    12    2
    21    12    13    1
    22    13    14    1
    23    13    39    1
    24    13    40    1
    25    14    15    1
    26    15    20   ar
    27    15    16   ar
    28    16    17   ar
    29    16    41    1
    30    17    18   ar
    31    17    42    1
    32    18    19   ar
    33    18    43    1
    34    19    20   ar
    35    19    44    1
    36    20    45    1
    37    21    22    1
    38    21    46    1
    39    22    23    1
    40    22    47    1
    41    22    48    1
    42    23    24    1
    43    23    25    1
    44    23    27    1
    45    25    26    1
    46    25    49    1
    47    25    50    1
    48    26    51    1
    49    27    32   ar
    50    27    28   ar
    51    28    29   ar
    52    28    52    1
    53    29    30   ar
    54    29    53    1
    55    30    31   ar
    56    30    54    1
    57    31    32   ar
    58    31    55    1
    59    32    56    1
@<TRIPOS>SUBSTRUCTURE
     1 ZINC000489986384        1 TEMP              0 ****  ****    0 ROOT


##########                                Name:    ZINC000020646552
##########                DOCK_Rotatable_Bonds:                   5
##########                         Heavy_Atoms:                  29
##########                    Molecular_Weight:             412.556
##########                DOCK_Rotatable_Bonds:                   5
##########                       Formal_Charge:          -0.0200012
##########                     HBond_Acceptors:                   7
##########                        HBond_Donors:                   0
##########                         Heavy_Atoms:                  29
##########                          Grid_Score:          -33.762047
##########                     Grid_vdw_energy:          -33.808128
##########                      Grid_es_energy:            0.046083
##########           Internal_energy_repulsive:           15.200880

@<TRIPOS>MOLECULE
ZINC000020646552
 57 60 1 0 0
SMALL
USER_CHARGES


@<TRIPOS>ATOM
      1 C1        -16.6753   -2.3323   58.3701 C.3     1  ZINC000020646552    0.0200
      2 N2        -15.4792   -2.6090   57.5633 N.3     1  ZINC000020646552   -0.5400
      3 C3        -14.7364   -3.7571   58.0998 C.3     1  ZINC000020646552    0.0400
      4 C4        -13.6046   -4.1252   57.1345 C.3     1  ZINC000020646552    0.1200
      5 N5        -12.7951   -2.9231   56.8835 N.am    1  ZINC000020646552   -0.6100
      6 C6        -11.4549   -2.9497   57.0243 C.2     1  ZINC000020646552    0.5300
      7 O7        -10.9008   -3.9746   57.3605 O.2     1  ZINC000020646552   -0.5200
      8 C8        -10.6452   -1.7057   56.7636 C.3     1  ZINC000020646552   -0.1500
      9 S9        -10.3759   -1.5233   54.9831 S.3     1  ZINC000020646552    0.0500
     10 C10        -9.2744   -0.1481   54.9796 C.ar    1  ZINC000020646552    0.1500
     11 N11        -8.8927    0.4133   56.1218 N.ar    1  ZINC000020646552   -0.5200
     12 C12        -8.0641    1.4482   56.1196 C.ar    1  ZINC000020646552    0.3800
     13 C13        -7.6553    2.0499   57.4122 C.ar    1  ZINC000020646552   -0.0500
     14 C14        -7.0292    3.2948   57.4372 C.ar    1  ZINC000020646552   -0.0700
     15 C15        -6.6515    3.8502   58.6429 C.ar    1  ZINC000020646552   -0.1300
     16 C16        -6.8931    3.1735   59.8249 C.ar    1  ZINC000020646552   -0.1000
     17 C17        -7.5137    1.9374   59.8061 C.ar    1  ZINC000020646552   -0.1300
     18 C18        -7.9010    1.3751   58.6067 C.ar    1  ZINC000020646552   -0.0700
     19 N19        -7.5918    1.9582   54.9915 N.ar    1  ZINC000020646552   -0.5200
     20 C20        -7.9328    1.4467   53.8154 C.ar    1  ZINC000020646552    0.2100
     21 C21        -8.7838    0.3661   53.7738 C.ar    1  ZINC000020646552   -0.2100
     22 C22        -9.1982   -0.2664   52.4740 C.3     1  ZINC000020646552    0.1100
     23 O23        -8.9057    0.6096   51.3847 O.3     1  ZINC000020646552   -0.3600
     24 C24        -7.5545    1.0841   51.3891 C.3     1  ZINC000020646552    0.1100
     25 C25        -6.5964   -0.0959   51.5640 C.3     1  ZINC000020646552   -0.1800
     26 C26        -7.2561    1.7968   50.0685 C.3     1  ZINC000020646552   -0.1400
     27 C27        -7.3798    2.0575   52.5548 C.3     1  ZINC000020646552   -0.0900
     28 C28       -13.4870   -1.6913   56.4744 C.3     1  ZINC000020646552    0.1100
     29 C29       -14.6234   -1.4191   57.4657 C.3     1  ZINC000020646552    0.0400
     30 H30       -17.2471   -1.5276   57.9081 H       1  ZINC000020646552    0.0700
     31 H31       -17.2914   -3.2299   58.4261 H       1  ZINC000020646552    0.0700
     32 H32       -16.3751   -2.0344   59.3747 H       1  ZINC000020646552    0.0300
     33 H33       -14.3157   -3.4965   59.0711 H       1  ZINC000020646552    0.0400
     34 H34       -15.4103   -4.6066   58.2110 H       1  ZINC000020646552    0.0900
     35 H35       -12.9809   -4.9001   57.5800 H       1  ZINC000020646552    0.1000
     36 H36       -14.0262   -4.4852   56.1961 H       1  ZINC000020646552    0.0800
     37 H37       -11.1833   -0.8361   57.1407 H       1  ZINC000020646552    0.1300
     38 H38        -9.6833   -1.7856   57.2703 H       1  ZINC000020646552    0.1200
     39 H39        -6.8398    3.8238   56.5149 H       1  ZINC000020646552    0.1400
     40 H40        -6.1659    4.8147   58.6635 H       1  ZINC000020646552    0.1300
     41 H41        -6.5958    3.6118   60.7661 H       1  ZINC000020646552    0.1300
     42 H42        -7.6996    1.4134   60.7319 H       1  ZINC000020646552    0.1300
     43 H43        -8.3854    0.4099   58.5930 H       1  ZINC000020646552    0.1300
     44 H44        -8.6573   -1.2032   52.3396 H       1  ZINC000020646552    0.0800
     45 H45       -10.2688   -0.4699   52.4965 H       1  ZINC000020646552    0.1100
     46 H46        -6.7308   -0.7981   50.7413 H       1  ZINC000020646552    0.0700
     47 H47        -5.5688    0.2679   51.5670 H       1  ZINC000020646552    0.0700
     48 H48        -6.8069   -0.5980   52.5083 H       1  ZINC000020646552    0.0600
     49 H49        -7.9357    2.6406   49.9494 H       1  ZINC000020646552    0.0700
     50 H50        -6.2274    2.1569   50.0745 H       1  ZINC000020646552    0.0800
     51 H51        -7.3926    1.1006   49.2410 H       1  ZINC000020646552    0.0700
     52 H52        -7.9178    2.9809   52.3399 H       1  ZINC000020646552    0.1000
     53 H53        -6.3207    2.2780   52.6876 H       1  ZINC000020646552    0.1000
     54 H54       -12.7854   -0.8571   56.4835 H       1  ZINC000020646552    0.0900
     55 H55       -13.8973   -1.8173   55.4725 H       1  ZINC000020646552    0.0800
     56 H56       -15.2153   -0.5729   57.1170 H       1  ZINC000020646552    0.0900
     57 H57       -14.2043   -1.1910   58.4457 H       1  ZINC000020646552    0.0400
@<TRIPOS>BOND
     1     1     2    1
     2     1    30    1
     3     1    31    1
     4     1    32    1
     5     2    29    1
     6     2     3    1
     7     3     4    1
     8     3    33    1
     9     3    34    1
    10     4     5    1
    11     4    35    1
    12     4    36    1
    13     5     6   am
    14     5    28    1
    15     6     7    2
    16     6     8    1
    17     8     9    1
    18     8    37    1
    19     8    38    1
    20     9    10    1
    21    10    21   ar
    22    10    11   ar
    23    11    12   ar
    24    12    13    1
    25    12    19   ar
    26    13    18   ar
    27    13    14   ar
    28    14    15   ar
    29    14    39    1
    30    15    16   ar
    31    15    40    1
    32    16    17   ar
    33    16    41    1
    34    17    18   ar
    35    17    42    1
    36    18    43    1
    37    19    20   ar
    38    20    27    1
    39    20    21   ar
    40    21    22    1
    41    22    23    1
    42    22    44    1
    43    22    45    1
    44    23    24    1
    45    24    25    1
    46    24    26    1
    47    24    27    1
    48    25    46    1
    49    25    47    1
    50    25    48    1
    51    26    49    1
    52    26    50    1
    53    26    51    1
    54    27    52    1
    55    27    53    1
    56    28    29    1
    57    28    54    1
    58    28    55    1
    59    29    56    1
    60    29    57    1
@<TRIPOS>SUBSTRUCTURE
     1 ZINC000020646552        1 TEMP              0 ****  ****    0 ROOT


##########                                Name:    ZINC001400108193
##########                DOCK_Rotatable_Bonds:                   9
##########                         Heavy_Atoms:                  25
##########                    Molecular_Weight:              344.41
##########                DOCK_Rotatable_Bonds:                   9
##########                       Formal_Charge:           0.0200001
##########                     HBond_Acceptors:                   6
##########                        HBond_Donors:                   2
##########                         Heavy_Atoms:                  25
##########                          Grid_Score:          -33.746758
##########                     Grid_vdw_energy:          -32.089802
##########                      Grid_es_energy:           -1.656955
##########           Internal_energy_repulsive:           11.508039

@<TRIPOS>MOLECULE
ZINC001400108193
 49 50 1 0 0
SMALL
USER_CHARGES


@<TRIPOS>ATOM
      1 C1         -8.4275    1.3342   67.1010 C.3     1  ZINC001400108193   -0.0800
      2 C2         -8.1784    0.8541   65.6944 C.2     1  ZINC001400108193   -0.0100
      3 C3         -8.8758    1.2265   64.6103 C.2     1  ZINC001400108193   -0.1600
      4 C4         -8.2761    0.5068   63.4771 C.2     1  ZINC001400108193   -0.2300
      5 C5         -8.6843    0.5739   62.0626 C.2     1  ZINC001400108193    0.5900
      6 O6         -9.5888    1.3136   61.7252 O.2     1  ZINC001400108193   -0.5300
      7 N7         -8.0551   -0.1843   61.1430 N.am    1  ZINC001400108193   -0.7300
      8 C8         -8.4620   -0.1189   59.7371 C.3     1  ZINC001400108193    0.1100
      9 C9         -9.2908   -1.3567   59.3880 C.3     1  ZINC001400108193    0.1300
     10 H10        -8.6293   -2.2146   59.2676 H       1  ZINC001400108193    0.1000
     11 C11       -10.2891   -1.6362   60.5132 C.3     1  ZINC001400108193   -0.1600
     12 N12       -10.0174   -1.1212   58.1378 N.am    1  ZINC001400108193   -0.7300
     13 C13       -10.2996   -2.1529   57.3178 C.2     1  ZINC001400108193    0.5200
     14 O14        -9.9534   -3.2765   57.6156 O.2     1  ZINC001400108193   -0.5100
     15 C15       -11.0455   -1.9104   56.0309 C.3     1  ZINC001400108193    0.0700
     16 H16       -10.6730   -2.5873   55.2620 H       1  ZINC001400108193    0.1000
     17 C17       -12.5385   -2.1615   56.2517 C.3     1  ZINC001400108193   -0.1800
     18 O18       -10.8466   -0.5586   55.6125 O.3     1  ZINC001400108193   -0.2800
     19 C19        -9.9172   -0.3427   54.6448 C.ar    1  ZINC001400108193    0.1200
     20 C20       -10.1741   -0.7266   53.3366 C.ar    1  ZINC001400108193   -0.2100
     21 C21        -9.2279   -0.5055   52.3547 C.ar    1  ZINC001400108193   -0.0800
     22 C22        -8.0235    0.0930   52.6757 C.ar    1  ZINC001400108193   -0.1200
     23 C23        -6.9905    0.3273   51.6037 C.3     1  ZINC001400108193   -0.1100
     24 C24        -7.7672    0.4813   53.9778 C.ar    1  ZINC001400108193   -0.0800
     25 C25        -8.7101    0.2625   54.9634 C.ar    1  ZINC001400108193   -0.1400
     26 C26        -7.2668   -0.2406   64.0096 C.2     1  ZINC001400108193    0.0200
     27 O27        -7.2236   -0.0142   65.3261 O.3     1  ZINC001400108193   -0.1700
     28 H28        -9.1390    0.6695   67.5910 H       1  ZINC001400108193    0.0900
     29 H29        -7.4894    1.3351   67.6561 H       1  ZINC001400108193    0.0800
     30 H30        -8.8342    2.3451   67.0733 H       1  ZINC001400108193    0.0900
     31 H31        -9.7074    1.9148   64.5769 H       1  ZINC001400108193    0.1600
     32 H32        -7.3329   -0.7734   61.4120 H       1  ZINC001400108193    0.4000
     33 H33        -7.5758   -0.0844   59.1035 H       1  ZINC001400108193    0.0800
     34 H34        -9.0607    0.7771   59.5735 H       1  ZINC001400108193    0.0900
     35 H35       -10.8794   -2.5180   60.2645 H       1  ZINC001400108193    0.0700
     36 H36        -9.7484   -1.8114   61.4433 H       1  ZINC001400108193    0.0700
     37 H37       -10.9505   -0.7782   60.6335 H       1  ZINC001400108193    0.0600
     38 H38       -10.2953   -0.2228   57.9002 H       1  ZINC001400108193    0.4000
     39 H39       -12.6903   -3.1925   56.5710 H       1  ZINC001400108193    0.0800
     40 H40       -12.9109   -1.4845   57.0206 H       1  ZINC001400108193    0.0800
     41 H41       -13.0780   -1.9861   55.3210 H       1  ZINC001400108193    0.0800
     42 H42       -11.1128   -1.1982   53.0863 H       1  ZINC001400108193    0.1300
     43 H43        -9.4272   -0.8045   51.3363 H       1  ZINC001400108193    0.1300
     44 H44        -7.1495    1.3074   51.1540 H       1  ZINC001400108193    0.0700
     45 H45        -5.9943    0.2868   52.0440 H       1  ZINC001400108193    0.0700
     46 H46        -7.0808   -0.4429   50.8377 H       1  ZINC001400108193    0.0700
     47 H47        -6.8274    0.9523   54.2253 H       1  ZINC001400108193    0.1300
     48 H48        -8.5079    0.5625   55.9810 H       1  ZINC001400108193    0.1300
     49 H49        -6.6121   -0.9010   63.4602 H       1  ZINC001400108193    0.2100
@<TRIPOS>BOND
     1     1     2    1
     2     1    28    1
     3     1    29    1
     4     1    30    1
     5     2    27    1
     6     2     3    2
     7     3     4    1
     8     3    31    1
     9     4     5    1
    10     4    26    2
    11     5     6    2
    12     5     7   am
    13     7     8    1
    14     7    32    1
    15     8     9    1
    16     8    33    1
    17     8    34    1
    18     9    10    1
    19     9    11    1
    20     9    12    1
    21    11    35    1
    22    11    36    1
    23    11    37    1
    24    12    13   am
    25    12    38    1
    26    13    14    2
    27    13    15    1
    28    15    16    1
    29    15    17    1
    30    15    18    1
    31    17    39    1
    32    17    40    1
    33    17    41    1
    34    18    19    1
    35    19    25   ar
    36    19    20   ar
    37    20    21   ar
    38    20    42    1
    39    21    22   ar
    40    21    43    1
    41    22    23    1
    42    22    24   ar
    43    23    44    1
    44    23    45    1
    45    23    46    1
    46    24    25   ar
    47    24    47    1
    48    25    48    1
    49    26    27    1
    50    26    49    1
@<TRIPOS>SUBSTRUCTURE
     1 ZINC001400108193        1 TEMP              0 ****  ****    0 ROOT


##########                                Name:    ZINC001087843226
##########                DOCK_Rotatable_Bonds:                   6
##########                         Heavy_Atoms:                  27
##########                    Molecular_Weight:             368.479
##########                DOCK_Rotatable_Bonds:                   6
##########                       Formal_Charge:        -4.47035e-07
##########                     HBond_Acceptors:                   6
##########                        HBond_Donors:                   1
##########                         Heavy_Atoms:                  27
##########                          Grid_Score:          -33.730522
##########                     Grid_vdw_energy:          -33.570919
##########                      Grid_es_energy:           -0.159602
##########           Internal_energy_repulsive:           56.598267

@<TRIPOS>MOLECULE
ZINC001087843226
 55 58 1 0 0
SMALL
USER_CHARGES


@<TRIPOS>ATOM
      1 C1         -7.6343   -0.5620   51.7217 C.3     1  ZINC001087843226   -0.1500
      2 C2         -7.3725    0.8978   51.3458 C.3     1  ZINC001087843226   -0.1500
      3 C3         -7.0898    1.7079   52.6126 C.3     1  ZINC001087843226    0.0700
      4 H4         -6.3358    1.2018   53.2155 H       1  ZINC001087843226    0.1000
      5 C5         -8.3886    1.8762   53.4290 C.3     1  ZINC001087843226    0.1300
      6 H6         -9.2634    1.7688   52.7877 H       1  ZINC001087843226    0.1000
      7 N7         -8.4357    0.9130   54.5318 N.am    1  ZINC001087843226   -0.7200
      8 C8         -9.6227    0.4541   54.9756 C.2     1  ZINC001087843226    0.5600
      9 O9        -10.6542    0.8406   54.4617 O.2     1  ZINC001087843226   -0.5300
     10 C10        -9.6701   -0.5192   56.0874 C.ar    1  ZINC001087843226   -0.1400
     11 C11       -10.3322   -1.7354   55.9227 C.ar    1  ZINC001087843226   -0.0800
     12 C12       -10.3730   -2.6397   56.9640 C.ar    1  ZINC001087843226   -0.1300
     13 C13        -9.7593   -2.3408   58.1659 C.ar    1  ZINC001087843226   -0.0400
     14 C14        -9.8086   -3.3345   59.2978 C.3     1  ZINC001087843226   -0.1200
     15 C15        -9.0983   -1.1341   58.3383 C.ar    1  ZINC001087843226   -0.1100
     16 C16        -9.0463   -0.2239   57.3033 C.ar    1  ZINC001087843226   -0.0300
     17 C17        -8.2755    1.0042   57.7377 C.3     1  ZINC001087843226   -0.0800
     18 C18        -8.2386    0.9330   59.2792 C.3     1  ZINC001087843226   -0.1200
     19 C19        -8.3609   -0.5847   59.5411 C.3     1  ZINC001087843226   -0.0800
     20 C20        -8.2776    3.3270   53.9671 C.3     1  ZINC001087843226   -0.1400
     21 C21        -7.5846    4.0475   52.7837 C.3     1  ZINC001087843226    0.0400
     22 N22        -6.6195    3.0575   52.2504 N.3     1  ZINC001087843226   -0.5100
     23 C23        -6.4774    3.1923   50.7945 C.3     1  ZINC001087843226    0.1100
     24 C24        -5.1088    2.7190   50.3775 C.2     1  ZINC001087843226    0.0800
     25 N25        -4.8698    1.8048   49.4853 N.2     1  ZINC001087843226   -0.2700
     26 O26        -3.4616    1.6595   49.3928 O.3     1  ZINC001087843226    0.0300
     27 N27        -2.9027    2.5784   50.3183 N.2     1  ZINC001087843226   -0.2800
     28 C28        -3.8887    3.2030   50.8897 C.2     1  ZINC001087843226    0.0900
     29 C29        -3.7491    4.2709   51.9438 C.3     1  ZINC001087843226   -0.0900
     30 H30        -7.9031   -1.1248   50.8278 H       1  ZINC001087843226    0.0600
     31 H31        -6.7347   -0.9902   52.1637 H       1  ZINC001087843226    0.0600
     32 H32        -8.4514   -0.6111   52.4414 H       1  ZINC001087843226    0.0600
     33 H33        -6.5116    0.9528   50.6796 H       1  ZINC001087843226    0.0800
     34 H34        -8.2487    1.3058   50.8417 H       1  ZINC001087843226    0.0700
     35 H35        -7.6125    0.6055   54.9427 H       1  ZINC001087843226    0.4000
     36 H36       -10.8119   -1.9685   54.9836 H       1  ZINC001087843226    0.1300
     37 H37       -10.8854   -3.5822   56.8399 H       1  ZINC001087843226    0.1300
     38 H38        -8.9497   -4.0024   59.2326 H       1  ZINC001087843226    0.0800
     39 H39        -9.7842   -2.8030   60.2491 H       1  ZINC001087843226    0.0700
     40 H40       -10.7276   -3.9168   59.2303 H       1  ZINC001087843226    0.0700
     41 H41        -7.2635    0.9782   57.3335 H       1  ZINC001087843226    0.0800
     42 H42        -8.7904    1.9083   57.4129 H       1  ZINC001087843226    0.0900
     43 H43        -7.2925    1.3154   59.6623 H       1  ZINC001087843226    0.0800
     44 H44        -9.0803    1.4734   59.7123 H       1  ZINC001087843226    0.0700
     45 H45        -8.9364   -0.7667   60.4487 H       1  ZINC001087843226    0.0800
     46 H46        -7.3718   -1.0353   59.6227 H       1  ZINC001087843226    0.0800
     47 H47        -9.2642    3.7493   54.1576 H       1  ZINC001087843226    0.0800
     48 H48        -7.6587    3.3646   54.8635 H       1  ZINC001087843226    0.0800
     49 H49        -8.3163    4.3149   52.0213 H       1  ZINC001087843226    0.0600
     50 H50        -7.0597    4.9357   53.1352 H       1  ZINC001087843226    0.0800
     51 H51        -7.2374    2.5892   50.2979 H       1  ZINC001087843226    0.1200
     52 H52        -6.6018    4.2379   50.5127 H       1  ZINC001087843226    0.0700
     53 H53        -3.7792    5.2531   51.4721 H       1  ZINC001087843226    0.1000
     54 H54        -4.5682    4.1858   52.6579 H       1  ZINC001087843226    0.0900
     55 H55        -2.7993    4.1464   52.4636 H       1  ZINC001087843226    0.0900
@<TRIPOS>BOND
     1     1     2    1
     2     1    30    1
     3     1    31    1
     4     1    32    1
     5     2     3    1
     6     2    33    1
     7     2    34    1
     8     3     4    1
     9     3    22    1
    10     3     5    1
    11     5     6    1
    12     5     7    1
    13     5    20    1
    14     7     8   am
    15     7    35    1
    16     8     9    2
    17     8    10    1
    18    10    16   ar
    19    10    11   ar
    20    11    12   ar
    21    11    36    1
    22    12    13   ar
    23    12    37    1
    24    13    14    1
    25    13    15   ar
    26    14    38    1
    27    14    39    1
    28    14    40    1
    29    15    19    1
    30    15    16   ar
    31    16    17    1
    32    17    18    1
    33    17    41    1
    34    17    42    1
    35    18    19    1
    36    18    43    1
    37    18    44    1
    38    19    45    1
    39    19    46    1
    40    20    21    1
    41    20    47    1
    42    20    48    1
    43    21    22    1
    44    21    49    1
    45    21    50    1
    46    22    23    1
    47    23    24    1
    48    23    51    1
    49    23    52    1
    50    24    28    1
    51    24    25    2
    52    25    26    1
    53    26    27    1
    54    27    28    2
    55    28    29    1
    56    29    53    1
    57    29    54    1
    58    29    55    1
@<TRIPOS>SUBSTRUCTURE
     1 ZINC001087843226        1 TEMP              0 ****  ****    0 ROOT


##########                                Name:    ZINC000451500596
##########                DOCK_Rotatable_Bonds:                   7
##########                         Heavy_Atoms:                  25
##########                    Molecular_Weight:             365.497
##########                DOCK_Rotatable_Bonds:                   7
##########                       Formal_Charge:           0.0400004
##########                     HBond_Acceptors:                   7
##########                        HBond_Donors:                   2
##########                         Heavy_Atoms:                  25
##########                          Grid_Score:          -33.655464
##########                     Grid_vdw_energy:          -28.314060
##########                      Grid_es_energy:           -5.341404
##########           Internal_energy_repulsive:            9.168586

@<TRIPOS>MOLECULE
ZINC000451500596
 52 54 1 0 0
SMALL
USER_CHARGES


@<TRIPOS>ATOM
      1 C1         -6.0398    0.7217   66.8206 C.3     1  ZINC000451500596   -0.6700
      2 S2         -7.7673    0.4165   66.3591 S.o2    1  ZINC000451500596    2.6100
      3 O3         -8.1150   -0.9404   66.5983 O.2     1  ZINC000451500596   -0.9500
      4 O4         -8.5989    1.4766   66.8110 O.2     1  ZINC000451500596   -0.9600
      5 N5         -7.7855    0.5580   64.7093 N.am    1  ZINC000451500596   -1.1200
      6 C6         -9.0377    0.3723   63.9720 C.3     1  ZINC000451500596    0.1200
      7 C7         -9.0130    1.2251   62.7019 C.3     1  ZINC000451500596   -0.1000
      8 H8         -8.1011    1.0285   62.1381 H       1  ZINC000451500596    0.0900
      9 C9         -9.0952    2.7213   63.0684 C.3     1  ZINC000451500596   -0.1200
     10 C10        -9.9756    3.3377   61.9530 C.3     1  ZINC000451500596   -0.1300
     11 C11       -11.0355    2.2355   61.7057 C.3     1  ZINC000451500596   -0.1300
     12 C12       -10.2459    0.9153   61.8349 C.3     1  ZINC000451500596    0.1400
     13 H13       -10.8620    0.1577   62.3192 H       1  ZINC000451500596    0.1000
     14 N14        -9.8268    0.4496   60.5106 N.am    1  ZINC000451500596   -0.7200
     15 C15       -10.5531   -0.4832   59.8634 C.2     1  ZINC000451500596    0.5300
     16 O16       -11.5528   -0.9381   60.3779 O.2     1  ZINC000451500596   -0.5300
     17 C17       -10.1232   -0.9609   58.5004 C.3     1  ZINC000451500596   -0.1300
     18 H18        -9.0400   -0.8994   58.3959 H       1  ZINC000451500596    0.1000
     19 C19       -10.6172   -2.4094   58.2458 C.3     1  ZINC000451500596   -0.1200
     20 C20       -10.6993   -2.4448   56.6994 C.3     1  ZINC000451500596    0.0500
     21 N21       -11.1776   -1.0995   56.3158 N.3     1  ZINC000451500596   -0.4900
     22 C22       -10.6232   -0.6996   55.0977 C.ar    1  ZINC000451500596    0.0800
     23 C23       -11.4497   -0.3833   54.0271 C.ar    1  ZINC000451500596   -0.0900
     24 C24       -10.8983    0.0122   52.8243 C.ar    1  ZINC000451500596   -0.1100
     25 C25        -9.5248    0.0931   52.6849 C.ar    1  ZINC000451500596   -0.1200
     26 C26        -8.6991   -0.2211   53.7487 C.ar    1  ZINC000451500596   -0.1100
     27 C27        -9.2441   -0.6118   54.9560 C.ar    1  ZINC000451500596   -0.1500
     28 C28       -10.8253   -0.1498   57.3911 C.3     1  ZINC000451500596    0.0600
     29 H29        -5.3994   -0.0190   66.3417 H       1  ZINC000451500596    0.1300
     30 H30        -5.7475    1.7199   66.4946 H       1  ZINC000451500596    0.1300
     31 H31        -5.9343    0.6476   67.9031 H       1  ZINC000451500596    0.1300
     32 H32        -6.9670    0.7639   64.2312 H       1  ZINC000451500596    0.4200
     33 H33        -9.1482   -0.6780   63.7022 H       1  ZINC000451500596    0.0700
     34 H34        -9.8765    0.6768   64.5979 H       1  ZINC000451500596    0.0900
     35 H35        -9.5677    2.8501   64.0422 H       1  ZINC000451500596    0.0800
     36 H36        -8.1023    3.1707   63.0627 H       1  ZINC000451500596    0.0700
     37 H37       -10.4481    4.2575   62.2979 H       1  ZINC000451500596    0.0700
     38 H38        -9.3883    3.5179   61.0526 H       1  ZINC000451500596    0.0700
     39 H39       -11.8212    2.2859   62.4595 H       1  ZINC000451500596    0.0800
     40 H40       -11.4582    2.3304   60.7056 H       1  ZINC000451500596    0.0700
     41 H41        -9.0267    0.8126   60.0996 H       1  ZINC000451500596    0.4000
     42 H42        -9.8961   -3.1386   58.6154 H       1  ZINC000451500596    0.0800
     43 H43       -11.5981   -2.5715   58.6927 H       1  ZINC000451500596    0.0800
     44 H44        -9.7149   -2.6340   56.2713 H       1  ZINC000451500596    0.0600
     45 H45       -11.4080   -3.2065   56.3743 H       1  ZINC000451500596    0.0900
     46 H46       -12.5225   -0.4468   54.1350 H       1  ZINC000451500596    0.1300
     47 H47       -11.5404    0.2583   51.9915 H       1  ZINC000451500596    0.1300
     48 H48        -9.0962    0.4019   51.7430 H       1  ZINC000451500596    0.1200
     49 H49        -7.6268   -0.1570   53.6365 H       1  ZINC000451500596    0.1200
     50 H50        -8.5987   -0.8568   55.7865 H       1  ZINC000451500596    0.1200
     51 H51       -11.7291    0.3123   57.7885 H       1  ZINC000451500596    0.1000
     52 H52       -10.1539    0.6165   57.0038 H       1  ZINC000451500596    0.0700
@<TRIPOS>BOND
     1     1     2    1
     2     1    29    1
     3     1    30    1
     4     1    31    1
     5     2     3    2
     6     2     4    2
     7     2     5   am
     8     5     6    1
     9     5    32    1
    10     6     7    1
    11     6    33    1
    12     6    34    1
    13     7     8    1
    14     7    12    1
    15     7     9    1
    16     9    10    1
    17     9    35    1
    18     9    36    1
    19    10    11    1
    20    10    37    1
    21    10    38    1
    22    11    12    1
    23    11    39    1
    24    11    40    1
    25    12    13    1
    26    12    14    1
    27    14    15   am
    28    14    41    1
    29    15    16    2
    30    15    17    1
    31    17    18    1
    32    17    28    1
    33    17    19    1
    34    19    20    1
    35    19    42    1
    36    19    43    1
    37    20    21    1
    38    20    44    1
    39    20    45    1
    40    21    22    1
    41    21    28    1
    42    22    27   ar
    43    22    23   ar
    44    23    24   ar
    45    23    46    1
    46    24    25   ar
    47    24    47    1
    48    25    26   ar
    49    25    48    1
    50    26    27   ar
    51    26    49    1
    52    27    50    1
    53    28    51    1
    54    28    52    1
@<TRIPOS>SUBSTRUCTURE
     1 ZINC000451500596        1 TEMP              0 ****  ****    0 ROOT


##########                                Name:    ZINC000532153088
##########                DOCK_Rotatable_Bonds:                  11
##########                         Heavy_Atoms:                  29
##########                    Molecular_Weight:             402.484
##########                DOCK_Rotatable_Bonds:                  11
##########                       Formal_Charge:          -0.0200009
##########                     HBond_Acceptors:                   6
##########                        HBond_Donors:                   1
##########                         Heavy_Atoms:                  29
##########                          Grid_Score:          -33.653008
##########                     Grid_vdw_energy:          -33.923447
##########                      Grid_es_energy:            0.270439
##########           Internal_energy_repulsive:           16.652508

@<TRIPOS>MOLECULE
ZINC000532153088
 57 59 1 0 0
SMALL
USER_CHARGES


@<TRIPOS>ATOM
      1 C1        -15.8532   -2.0411   57.5735 C.3     1  ZINC000532153088   -0.1800
      2 C2        -15.4419   -2.4199   58.9977 C.3     1  ZINC000532153088    0.0800
      3 C3        -16.1502   -3.7131   59.4062 C.3     1  ZINC000532153088   -0.1500
      4 O4        -14.0272   -2.6148   59.0491 O.3     1  ZINC000532153088   -0.3800
      5 C5        -13.2719   -1.4022   59.0159 C.3     1  ZINC000532153088    0.1000
      6 C6        -11.8069   -1.7185   59.1740 C.ar    1  ZINC000532153088   -0.0700
      7 C7        -11.1437   -1.3604   60.3325 C.ar    1  ZINC000532153088   -0.1000
      8 C8         -9.7997   -1.6506   60.4775 C.ar    1  ZINC000532153088   -0.1100
      9 C9         -9.1195   -2.2995   59.4642 C.ar    1  ZINC000532153088   -0.1200
     10 C10        -9.7833   -2.6586   58.3057 C.ar    1  ZINC000532153088   -0.1000
     11 C11       -11.1278   -2.3722   58.1625 C.ar    1  ZINC000532153088   -0.1100
     12 C12       -11.8513   -2.7637   56.8998 C.3     1  ZINC000532153088    0.1600
     13 N13       -11.9866   -1.5918   56.0312 N.am    1  ZINC000532153088   -0.7300
     14 C14       -11.0822   -1.3666   55.0576 C.2     1  ZINC000532153088    0.5100
     15 O15       -10.1573   -2.1349   54.8998 O.2     1  ZINC000532153088   -0.5000
     16 C16       -11.2204   -0.1601   54.1653 C.3     1  ZINC000532153088    0.0300
     17 N17        -9.8929    0.2521   53.6901 N.3     1  ZINC000532153088   -0.4800
     18 C18        -9.9260    0.5863   52.2600 C.3     1  ZINC000532153088    0.1000
     19 C19        -8.5311    0.9027   51.7856 C.ar    1  ZINC000532153088   -0.1300
     20 C20        -7.6054   -0.1124   51.6369 C.ar    1  ZINC000532153088   -0.0600
     21 C21        -6.3256    0.1763   51.2013 C.ar    1  ZINC000532153088   -0.1700
     22 C22        -5.9700    1.4830   50.9137 C.ar    1  ZINC000532153088    0.1300
     23 F23        -4.7192    1.7649   50.4875 F       1  ZINC000532153088   -0.1300
     24 C24        -6.8966    2.5008   51.0623 C.ar    1  ZINC000532153088   -0.2000
     25 C25        -8.1792    2.2099   51.4933 C.ar    1  ZINC000532153088    0.1600
     26 F26        -9.0845    3.2020   51.6388 F       1  ZINC000532153088   -0.1100
     27 C27        -9.3761    1.3765   54.4816 C.3     1  ZINC000532153088    0.0200
     28 C28        -9.1353    1.1384   55.9737 C.3     1  ZINC000532153088   -0.2200
     29 C29        -7.9475    1.2654   55.0178 C.3     1  ZINC000532153088   -0.1700
     30 H30       -16.9322   -1.8925   57.5342 H       1  ZINC000532153088    0.0700
     31 H31       -15.3486   -1.1198   57.2825 H       1  ZINC000532153088    0.0600
     32 H32       -15.5715   -2.8414   56.8891 H       1  ZINC000532153088    0.0700
     33 H33       -15.7235   -1.6196   59.6822 H       1  ZINC000532153088    0.0600
     34 H34       -15.8685   -4.5134   58.7218 H       1  ZINC000532153088    0.0600
     35 H35       -15.8572   -3.9829   60.4208 H       1  ZINC000532153088    0.0600
     36 H36       -17.2292   -3.5644   59.3670 H       1  ZINC000532153088    0.0700
     37 H37       -13.4341   -0.8990   58.0628 H       1  ZINC000532153088    0.0600
     38 H38       -13.5929   -0.7517   59.8295 H       1  ZINC000532153088    0.0600
     39 H39       -11.6751   -0.8534   61.1242 H       1  ZINC000532153088    0.1300
     40 H40        -9.2812   -1.3701   61.3824 H       1  ZINC000532153088    0.1200
     41 H41        -8.0696   -2.5257   59.5772 H       1  ZINC000532153088    0.1300
     42 H42        -9.2518   -3.1653   57.5138 H       1  ZINC000532153088    0.1300
     43 H43       -11.2845   -3.5369   56.3811 H       1  ZINC000532153088    0.0800
     44 H44       -12.8407   -3.1455   57.1514 H       1  ZINC000532153088    0.0800
     45 H45       -12.7272   -0.9780   56.1567 H       1  ZINC000532153088    0.4000
     46 H46       -11.8505   -0.4098   53.3116 H       1  ZINC000532153088    0.0700
     47 H47       -11.6752    0.6564   54.7261 H       1  ZINC000532153088    0.1100
     48 H48       -10.3174   -0.2615   51.6977 H       1  ZINC000532153088    0.0900
     49 H49       -10.5682    1.4532   52.1042 H       1  ZINC000532153088    0.0500
     50 H50        -7.8817   -1.1320   51.8615 H       1  ZINC000532153088    0.1400
     51 H51        -5.6027   -0.6177   51.0858 H       1  ZINC000532153088    0.1400
     52 H52        -6.6201    3.5205   50.8380 H       1  ZINC000532153088    0.1500
     53 H53        -9.7247    2.3639   54.1790 H       1  ZINC000532153088    0.1200
     54 H54        -9.3256    1.9693   56.6531 H       1  ZINC000532153088    0.1000
     55 H55        -9.3604    0.1474   56.3680 H       1  ZINC000532153088    0.1000
     56 H56        -7.3910    0.3579   54.7832 H       1  ZINC000532153088    0.1000
     57 H57        -7.3562    2.1798   55.0684 H       1  ZINC000532153088    0.1000
@<TRIPOS>BOND
     1     1     2    1
     2     1    30    1
     3     1    31    1
     4     1    32    1
     5     2     3    1
     6     2     4    1
     7     2    33    1
     8     3    34    1
     9     3    35    1
    10     3    36    1
    11     4     5    1
    12     5     6    1
    13     5    37    1
    14     5    38    1
    15     6    11   ar
    16     6     7   ar
    17     7     8   ar
    18     7    39    1
    19     8     9   ar
    20     8    40    1
    21     9    10   ar
    22     9    41    1
    23    10    11   ar
    24    10    42    1
    25    11    12    1
    26    12    13    1
    27    12    43    1
    28    12    44    1
    29    13    14   am
    30    13    45    1
    31    14    15    2
    32    14    16    1
    33    16    17    1
    34    16    46    1
    35    16    47    1
    36    17    18    1
    37    17    27    1
    38    18    19    1
    39    18    48    1
    40    18    49    1
    41    19    25   ar
    42    19    20   ar
    43    20    21   ar
    44    20    50    1
    45    21    22   ar
    46    21    51    1
    47    22    23    1
    48    22    24   ar
    49    24    25   ar
    50    24    52    1
    51    25    26    1
    52    27    29    1
    53    27    28    1
    54    27    53    1
    55    28    29    1
    56    28    54    1
    57    28    55    1
    58    29    56    1
    59    29    57    1
@<TRIPOS>SUBSTRUCTURE
     1 ZINC000532153088        1 TEMP              0 ****  ****    0 ROOT


##########                                Name:    ZINC000474368324
##########                DOCK_Rotatable_Bonds:                   9
##########                         Heavy_Atoms:                  27
##########                    Molecular_Weight:             417.332
##########                DOCK_Rotatable_Bonds:                   9
##########                       Formal_Charge:        -1.63913e-07
##########                     HBond_Acceptors:                   8
##########                        HBond_Donors:                   1
##########                         Heavy_Atoms:                  27
##########                          Grid_Score:          -33.622643
##########                     Grid_vdw_energy:          -33.650337
##########                      Grid_es_energy:            0.027696
##########           Internal_energy_repulsive:           25.216084

@<TRIPOS>MOLECULE
ZINC000474368324
 53 54 1 0 0
SMALL
USER_CHARGES


@<TRIPOS>ATOM
      1 C1         -3.5604    5.0340   53.1455 C.3     1  ZINC000474368324   -0.1500
      2 C2         -3.9354    4.2482   51.8874 C.3     1  ZINC000474368324    0.0600
      3 O3         -4.9171    3.2331   52.2255 O.3     1  ZINC000474368324   -0.3300
      4 C4         -5.3534    2.4505   51.2260 C.2     1  ZINC000474368324    0.4700
      5 O5         -4.6545    2.2597   50.2590 O.2     1  ZINC000474368324   -0.5100
      6 C6         -6.7147    1.8097   51.3101 C.3     1  ZINC000474368324   -0.0400
      7 C7         -7.4031    1.8943   49.9463 C.3     1  ZINC000474368324    0.0600
      8 O8         -7.3479    3.2395   49.4675 O.3     1  ZINC000474368324   -0.3700
      9 C9         -8.6275    3.8609   49.3309 C.3     1  ZINC000474368324    0.0300
     10 C10        -6.5630    0.3413   51.7140 C.3     1  ZINC000474368324   -0.1200
     11 C11        -7.9459   -0.3157   51.7648 C.3     1  ZINC000474368324    0.1100
     12 N12        -8.8100    0.4692   52.6569 N.am    1  ZINC000474368324   -0.6300
     13 C13        -9.4577   -0.1216   53.6804 C.2     1  ZINC000474368324    0.7100
     14 O14        -9.3299   -1.3154   53.8728 O.2     1  ZINC000474368324   -0.5800
     15 N15       -10.2471    0.6107   54.4910 N.am    1  ZINC000474368324   -0.7400
     16 C16       -10.9512   -0.0315   55.6036 C.3     1  ZINC000474368324    0.2000
     17 H17       -11.3922   -0.9680   55.2624 H       1  ZINC000474368324    0.1100
     18 C18       -12.0560    0.8970   56.1118 C.3     1  ZINC000474368324   -0.1600
     19 C19        -9.9777   -0.3117   56.7193 C.ar    1  ZINC000474368324   -0.0700
     20 C20        -8.8588    0.4841   56.8763 C.ar    1  ZINC000474368324   -0.1000
     21 C21        -7.9654    0.2281   57.9000 C.ar    1  ZINC000474368324   -0.0900
     22 C22        -8.1903   -0.8240   58.7674 C.ar    1  ZINC000474368324   -0.1000
     23 C23        -9.3099   -1.6217   58.6119 C.ar    1  ZINC000474368324   -0.0300
     24 Cl24       -9.5928   -2.9433   59.7013 Cl      1  ZINC000474368324   -0.0400
     25 C25       -10.2072   -1.3620   57.5900 C.ar    1  ZINC000474368324   -0.0300
     26 Cl26      -11.6129   -2.3616   57.3937 Cl      1  ZINC000474368324   -0.0400
     27 C27        -8.9541    1.9109   52.4122 C.3     1  ZINC000474368324    0.1300
     28 C28        -7.5598    2.5429   52.3542 C.3     1  ZINC000474368324   -0.1200
     29 H29        -2.8234    5.7960   52.8917 H       1  ZINC000474368324    0.0800
     30 H30        -4.4507    5.5116   53.5545 H       1  ZINC000474368324    0.0700
     31 H31        -3.1398    4.3542   53.8866 H       1  ZINC000474368324    0.0700
     32 H32        -4.3560    4.9280   51.1464 H       1  ZINC000474368324    0.0700
     33 H33        -3.0451    3.7706   51.4785 H       1  ZINC000474368324    0.0700
     34 H34        -6.8948    1.2366   49.2413 H       1  ZINC000474368324    0.0700
     35 H35        -8.4441    1.5862   50.0450 H       1  ZINC000474368324    0.0600
     36 H36        -9.2337    3.2929   48.6252 H       1  ZINC000474368324    0.0400
     37 H37        -9.1252    3.8847   50.3004 H       1  ZINC000474368324    0.0400
     38 H38        -8.4997    4.8789   48.9630 H       1  ZINC000474368324    0.0900
     39 H39        -5.9416   -0.1749   50.9822 H       1  ZINC000474368324    0.1000
     40 H40        -6.0952    0.2807   52.6966 H       1  ZINC000474368324    0.0800
     41 H41        -8.3773   -0.3371   50.7639 H       1  ZINC000474368324    0.0800
     42 H42        -7.8537   -1.3324   52.1469 H       1  ZINC000474368324    0.0800
     43 H43       -10.3490    1.5631   54.3376 H       1  ZINC000474368324    0.3900
     44 H44       -11.6150    1.8336   56.4531 H       1  ZINC000474368324    0.0600
     45 H45       -12.7601    1.0997   55.3048 H       1  ZINC000474368324    0.0700
     46 H46       -12.5799    0.4192   56.9397 H       1  ZINC000474368324    0.0700
     47 H47        -8.6820    1.3064   56.1987 H       1  ZINC000474368324    0.1300
     48 H48        -7.0911    0.8505   58.0216 H       1  ZINC000474368324    0.1400
     49 H49        -7.4918   -1.0237   59.5667 H       1  ZINC000474368324    0.1500
     50 H50        -9.4677    2.0711   51.4643 H       1  ZINC000474368324    0.0700
     51 H51        -9.5270    2.3634   53.2217 H       1  ZINC000474368324    0.1100
     52 H52        -7.0826    2.4616   53.3308 H       1  ZINC000474368324    0.0900
     53 H53        -7.6479    3.5937   52.0782 H       1  ZINC000474368324    0.0900
@<TRIPOS>BOND
     1     1     2    1
     2     1    29    1
     3     1    30    1
     4     1    31    1
     5     2     3    1
     6     2    32    1
     7     2    33    1
     8     3     4    1
     9     4     5    2
    10     4     6    1
    11     6    28    1
    12     6     7    1
    13     6    10    1
    14     7     8    1
    15     7    34    1
    16     7    35    1
    17     8     9    1
    18     9    36    1
    19     9    37    1
    20     9    38    1
    21    10    11    1
    22    10    39    1
    23    10    40    1
    24    11    12    1
    25    11    41    1
    26    11    42    1
    27    12    13   am
    28    12    27    1
    29    13    14    2
    30    13    15   am
    31    15    16    1
    32    15    43    1
    33    16    17    1
    34    16    18    1
    35    16    19    1
    36    18    44    1
    37    18    45    1
    38    18    46    1
    39    19    25   ar
    40    19    20   ar
    41    20    21   ar
    42    20    47    1
    43    21    22   ar
    44    21    48    1
    45    22    23   ar
    46    22    49    1
    47    23    24    1
    48    23    25   ar
    49    25    26    1
    50    27    28    1
    51    27    50    1
    52    27    51    1
    53    28    52    1
    54    28    53    1
@<TRIPOS>SUBSTRUCTURE
     1 ZINC000474368324        1 TEMP              0 ****  ****    0 ROOT


##########                                Name:    ZINC001411334959
##########                DOCK_Rotatable_Bonds:                   9
##########                         Heavy_Atoms:                  24
##########                    Molecular_Weight:              339.37
##########                DOCK_Rotatable_Bonds:                   9
##########                       Formal_Charge:           0.0199995
##########                     HBond_Acceptors:                   9
##########                        HBond_Donors:                   3
##########                         Heavy_Atoms:                  24
##########                          Grid_Score:          -33.609776
##########                     Grid_vdw_energy:          -31.437035
##########                      Grid_es_energy:           -2.172739
##########           Internal_energy_repulsive:            7.437493

@<TRIPOS>MOLECULE
ZINC001411334959
 46 48 1 0 0
SMALL
USER_CHARGES


@<TRIPOS>ATOM
      1 O1        -12.6143   -1.8429   55.9402 O.2     1  ZINC001411334959   -0.5400
      2 C2        -11.5393   -1.9685   56.4874 C.2     1  ZINC001411334959    0.5200
      3 C3        -11.3843   -2.9391   57.6298 C.3     1  ZINC001411334959   -0.1400
      4 C4        -11.2537   -2.1647   58.9429 C.3     1  ZINC001411334959   -0.0100
      5 C5         -9.7954   -1.9544   59.2593 C.2     1  ZINC001411334959    0.0100
      6 N6         -9.0365   -2.7019   60.0282 N.2     1  ZINC001411334959   -0.2800
      7 N7         -7.8523   -2.2008   60.0516 N.pl3   1  ZINC001411334959   -0.2500
      8 N8         -7.7908   -1.1421   59.3243 N.2     1  ZINC001411334959   -0.2800
      9 C9         -8.9720   -0.9282   58.7904 C.2     1  ZINC001411334959   -0.0200
     10 N10       -10.4819   -1.2444   56.0703 N.am    1  ZINC001411334959   -0.7200
     11 C11       -10.6327   -0.3009   54.9597 C.3     1  ZINC001411334959    0.1200
     12 C12        -9.3268    0.4167   54.5794 C.3     1  ZINC001411334959   -0.1400
     13 C13        -9.7524    0.2456   53.1116 C.3     1  ZINC001411334959   -0.1200
     14 C14        -8.5974   -0.1205   52.1774 C.3     1  ZINC001411334959    0.1300
     15 N15        -7.9567    1.1036   51.6902 N.am    1  ZINC001411334959   -0.7200
     16 C16        -6.8038    1.0304   50.9960 C.2     1  ZINC001411334959    0.5100
     17 O17        -6.2974   -0.0489   50.7735 O.2     1  ZINC001411334959   -0.5100
     18 C18        -6.1438    2.2897   50.4963 C.3     1  ZINC001411334959    0.0700
     19 F19        -6.9185    2.8936   49.5000 F       1  ZINC001411334959   -0.1800
     20 C20        -5.8749    3.2746   51.6666 C.3     1  ZINC001411334959   -0.1600
     21 C21        -4.6463    4.0474   51.1241 C.3     1  ZINC001411334959    0.0500
     22 O22        -3.8732    3.0695   50.4105 O.3     1  ZINC001411334959   -0.3700
     23 C23        -4.7184    1.9958   49.9813 C.3     1  ZINC001411334959    0.0400
     24 C24       -10.5782   -0.9663   53.5744 C.3     1  ZINC001411334959   -0.1400
     25 H25       -12.2587   -3.5883   57.6763 H       1  ZINC001411334959    0.1000
     26 H26       -10.4908   -3.5437   57.4743 H       1  ZINC001411334959    0.1000
     27 H27       -11.7475   -1.1979   58.8451 H       1  ZINC001411334959    0.1000
     28 H28       -11.7220   -2.7319   59.7473 H       1  ZINC001411334959    0.0900
     29 H29        -7.1071   -2.5711   60.5501 H       1  ZINC001411334959    0.4700
     30 H30        -9.2509   -0.1206   58.1298 H       1  ZINC001411334959    0.2000
     31 H31        -9.6212   -1.3478   56.5055 H       1  ZINC001411334959    0.4000
     32 H32       -11.4807    0.3718   55.0879 H       1  ZINC001411334959    0.1200
     33 H33        -9.2891    1.4563   54.9048 H       1  ZINC001411334959    0.0800
     34 H34        -8.4288   -0.1427   54.8418 H       1  ZINC001411334959    0.0900
     35 H35       -10.3577    1.0694   52.7337 H       1  ZINC001411334959    0.1000
     36 H36        -7.8675   -0.7213   52.7200 H       1  ZINC001411334959    0.0800
     37 H37        -8.9810   -0.6912   51.3317 H       1  ZINC001411334959    0.0800
     38 H38        -8.3623    1.9668   51.8670 H       1  ZINC001411334959    0.4100
     39 H39        -6.7224    3.9425   51.8206 H       1  ZINC001411334959    0.1000
     40 H40        -5.6283    2.7380   52.5828 H       1  ZINC001411334959    0.1100
     41 H41        -4.9665    4.8418   50.4499 H       1  ZINC001411334959    0.0700
     42 H42        -4.0654    4.4610   51.9485 H       1  ZINC001411334959    0.1000
     43 H43        -4.3612    1.0543   50.3987 H       1  ZINC001411334959    0.0900
     44 H44        -4.7226    1.9411   48.8926 H       1  ZINC001411334959    0.0900
     45 H45       -10.0223   -1.9039   53.5620 H       1  ZINC001411334959    0.0900
     46 H46       -11.5507   -1.0433   53.0884 H       1  ZINC001411334959    0.0800
@<TRIPOS>BOND
     1     1     2    2
     2     2     3    1
     3     2    10   am
     4     3     4    1
     5     3    25    1
     6     3    26    1
     7     4     5    1
     8     4    27    1
     9     4    28    1
    10     5     9    1
    11     5     6    2
    12     6     7    1
    13     7     8    1
    14     7    29    1
    15     8     9    2
    16     9    30    1
    17    10    11    1
    18    10    31    1
    19    11    24    1
    20    11    12    1
    21    11    32    1
    22    12    13    1
    23    12    33    1
    24    12    34    1
    25    13    14    1
    26    13    24    1
    27    13    35    1
    28    14    15    1
    29    14    36    1
    30    14    37    1
    31    15    16   am
    32    15    38    1
    33    16    17    2
    34    16    18    1
    35    18    23    1
    36    18    19    1
    37    18    20    1
    38    20    21    1
    39    20    39    1
    40    20    40    1
    41    21    22    1
    42    21    41    1
    43    21    42    1
    44    22    23    1
    45    23    43    1
    46    23    44    1
    47    24    45    1
    48    24    46    1
@<TRIPOS>SUBSTRUCTURE
     1 ZINC001411334959        1 TEMP              0 ****  ****    0 ROOT


##########                                Name:    ZINC000185598309
##########                DOCK_Rotatable_Bonds:                  14
##########                         Heavy_Atoms:                  25
##########                    Molecular_Weight:             347.457
##########                DOCK_Rotatable_Bonds:                  14
##########                       Formal_Charge:               -0.02
##########                     HBond_Acceptors:                   6
##########                        HBond_Donors:                   4
##########                         Heavy_Atoms:                  25
##########                          Grid_Score:          -33.581852
##########                     Grid_vdw_energy:          -32.944107
##########                      Grid_es_energy:           -0.637747
##########           Internal_energy_repulsive:           19.340538

@<TRIPOS>MOLECULE
ZINC000185598309
 54 54 1 0 0
SMALL
USER_CHARGES


@<TRIPOS>ATOM
      1 C1         -5.2502    1.8823   50.3700 C.3     1  ZINC000185598309   -0.1300
      2 C2         -6.6235    2.4502   50.1195 C.2     1  ZINC000185598309   -0.1600
      3 C3         -7.6855    1.7993   50.5251 C.2     1  ZINC000185598309   -0.1600
      4 C4         -7.5341    0.4835   51.2439 C.3     1  ZINC000185598309   -0.0900
      5 C5         -7.9993    0.6375   52.6932 C.3     1  ZINC000185598309    0.1700
      6 H6         -8.7377    1.4370   52.7548 H       1  ZINC000185598309    0.1000
      7 C7         -6.8006    0.9809   53.5799 C.3     1  ZINC000185598309    0.0600
      8 O8         -6.6292    2.3988   53.6212 O.3     1  ZINC000185598309   -0.5700
      9 N9         -8.6002   -0.6183   53.1493 N.am    1  ZINC000185598309   -0.7300
     10 C10        -9.5187   -0.6069   54.1355 C.2     1  ZINC000185598309    0.7000
     11 O11        -9.8497    0.4459   54.6457 O.2     1  ZINC000185598309   -0.5900
     12 N12       -10.0702   -1.7624   54.5561 N.am    1  ZINC000185598309   -0.7400
     13 C13       -11.0674   -1.7501   55.6294 C.3     1  ZINC000185598309    0.1800
     14 C14       -10.4126   -2.1456   56.9279 C.ar    1  ZINC000185598309   -0.0900
     15 C15       -10.1885   -3.4804   57.2097 C.ar    1  ZINC000185598309   -0.1100
     16 C16        -9.5883   -3.8475   58.4004 C.ar    1  ZINC000185598309   -0.1000
     17 C17        -9.2105   -2.8812   59.3116 C.ar    1  ZINC000185598309   -0.1100
     18 C18        -9.4338   -1.5393   59.0313 C.ar    1  ZINC000185598309    0.1400
     19 N19        -9.0518   -0.5576   59.9522 N.am    1  ZINC000185598309   -0.6800
     20 C20        -9.9031   -0.1796   60.9264 C.2     1  ZINC000185598309    0.5200
     21 O21       -11.0004   -0.6904   61.0046 O.2     1  ZINC000185598309   -0.5200
     22 C22        -9.4916    0.8777   61.9182 C.3     1  ZINC000185598309   -0.1100
     23 H23       -10.3800    1.3064   62.3820 H       1  ZINC000185598309    0.1000
     24 C24        -8.7117    1.9784   61.1962 C.3     1  ZINC000185598309   -0.1500
     25 C25        -8.6066    0.2488   62.9963 C.3     1  ZINC000185598309   -0.1100
     26 C26        -8.8922    0.9156   64.3435 C.3     1  ZINC000185598309   -0.1600
     27 C27       -10.0319   -1.1737   57.8327 C.ar    1  ZINC000185598309   -0.1300
     28 H28        -4.4978    2.5587   49.9644 H       1  ZINC000185598309    0.0600
     29 H29        -5.0948    1.7674   51.4428 H       1  ZINC000185598309    0.0600
     30 H30        -5.1648    0.9104   49.8842 H       1  ZINC000185598309    0.0600
     31 H31        -6.7321    3.3939   49.6055 H       1  ZINC000185598309    0.1100
     32 H32        -8.6697    2.2058   50.3443 H       1  ZINC000185598309    0.1100
     33 H33        -8.1396   -0.2741   50.7464 H       1  ZINC000185598309    0.0900
     34 H34        -6.4873    0.1796   51.2286 H       1  ZINC000185598309    0.0800
     35 H35        -6.9758    0.6065   54.5885 H       1  ZINC000185598309    0.0500
     36 H36        -5.9023    0.5179   53.1715 H       1  ZINC000185598309    0.0500
     37 H37        -5.8502    2.6867   54.1166 H       1  ZINC000185598309    0.3800
     38 H38        -8.3369   -1.4582   52.7415 H       1  ZINC000185598309    0.4000
     39 H39        -9.8070   -2.6023   54.1484 H       1  ZINC000185598309    0.4000
     40 H40       -11.4867   -0.7485   55.7243 H       1  ZINC000185598309    0.0700
     41 H41       -11.8634   -2.4565   55.3940 H       1  ZINC000185598309    0.0800
     42 H42       -10.4830   -4.2381   56.4988 H       1  ZINC000185598309    0.1300
     43 H43        -9.4152   -4.8911   58.6181 H       1  ZINC000185598309    0.1300
     44 H44        -8.7422   -3.1685   60.2414 H       1  ZINC000185598309    0.1300
     45 H45        -8.1742   -0.1491   59.8896 H       1  ZINC000185598309    0.4100
     46 H46        -9.3422    2.4264   60.4282 H       1  ZINC000185598309    0.0600
     47 H47        -8.4140    2.7431   61.9136 H       1  ZINC000185598309    0.0800
     48 H48        -7.8233    1.5497   60.7325 H       1  ZINC000185598309    0.0600
     49 H49        -8.8211   -0.8176   63.0660 H       1  ZINC000185598309    0.0700
     50 H50        -7.5581    0.3923   62.7349 H       1  ZINC000185598309    0.0700
     51 H51        -8.6777    1.9820   64.2737 H       1  ZINC000185598309    0.0600
     52 H52        -9.9406    0.7722   64.6049 H       1  ZINC000185598309    0.0600
     53 H53        -8.2616    0.4676   65.1115 H       1  ZINC000185598309    0.0600
     54 H54       -10.2069   -0.1311   57.6118 H       1  ZINC000185598309    0.1300
@<TRIPOS>BOND
     1     1     2    1
     2     1    28    1
     3     1    29    1
     4     1    30    1
     5     2     3    2
     6     2    31    1
     7     3     4    1
     8     3    32    1
     9     4     5    1
    10     4    33    1
    11     4    34    1
    12     5     6    1
    13     5     7    1
    14     5     9    1
    15     7     8    1
    16     7    35    1
    17     7    36    1
    18     8    37    1
    19     9    10   am
    20     9    38    1
    21    10    11    2
    22    10    12   am
    23    12    13    1
    24    12    39    1
    25    13    14    1
    26    13    40    1
    27    13    41    1
    28    14    27   ar
    29    14    15   ar
    30    15    16   ar
    31    15    42    1
    32    16    17   ar
    33    16    43    1
    34    17    18   ar
    35    17    44    1
    36    18    19    1
    37    18    27   ar
    38    19    20   am
    39    19    45    1
    40    20    21    2
    41    20    22    1
    42    22    23    1
    43    22    24    1
    44    22    25    1
    45    24    46    1
    46    24    47    1
    47    24    48    1
    48    25    26    1
    49    25    49    1
    50    25    50    1
    51    26    51    1
    52    26    52    1
    53    26    53    1
    54    27    54    1
@<TRIPOS>SUBSTRUCTURE
     1 ZINC000185598309        1 TEMP              0 ****  ****    0 ROOT


##########                                Name:    ZINC000957079511
##########                DOCK_Rotatable_Bonds:                   8
##########                         Heavy_Atoms:                  25
##########                    Molecular_Weight:             362.453
##########                DOCK_Rotatable_Bonds:                   8
##########                       Formal_Charge:        -4.32134e-07
##########                     HBond_Acceptors:                   8
##########                        HBond_Donors:                   2
##########                         Heavy_Atoms:                  25
##########                          Grid_Score:          -33.571571
##########                     Grid_vdw_energy:          -33.808758
##########                      Grid_es_energy:            0.237188
##########           Internal_energy_repulsive:           15.831291

@<TRIPOS>MOLECULE
ZINC000957079511
 47 49 1 0 0
SMALL
USER_CHARGES


@<TRIPOS>ATOM
      1 C1         -8.9499   -3.1194   59.2739 C.3     1  ZINC000957079511   -0.0700
      2 C2         -8.7022   -1.7173   58.7798 C.2     1  ZINC000957079511    0.0300
      3 C3         -9.3632   -1.1020   57.7810 C.2     1  ZINC000957079511   -0.0200
      4 C4        -10.4813   -1.6811   56.9530 C.3     1  ZINC000957079511   -0.0600
      5 C5        -10.2348   -1.3820   55.4967 C.2     1  ZINC000957079511    0.5100
      6 O6        -10.1835   -2.2877   54.6918 O.2     1  ZINC000957079511   -0.5200
      7 N7        -10.0713   -0.1079   55.0887 N.am    1  ZINC000957079511   -0.7200
      8 C8         -9.8299    0.1828   53.6733 C.3     1  ZINC000957079511    0.1400
      9 H9        -10.4831   -0.4143   53.0371 H       1  ZINC000957079511    0.1100
     10 C10        -8.3415   -0.0411   53.3065 C.3     1  ZINC000957079511    0.0800
     11 N11        -8.1076    0.8227   52.1349 N.am    1  ZINC000957079511   -0.6200
     12 C12        -7.1493    0.6418   51.2046 C.2     1  ZINC000957079511    0.5400
     13 O13        -6.3865   -0.2968   51.2942 O.2     1  ZINC000957079511   -0.5100
     14 C14        -7.0256    1.6059   50.0530 C.3     1  ZINC000957079511    0.0500
     15 O15        -5.6546    1.7091   49.6633 O.3     1  ZINC000957079511   -0.2800
     16 C16        -4.8403    2.4578   50.4583 C.2     1  ZINC000957079511    0.1200
     17 C17        -5.2785    3.0736   51.5602 C.2     1  ZINC000957079511   -0.3300
     18 S18        -3.9495    3.9384   52.3212 S.3     1  ZINC000957079511    0.1300
     19 C19        -2.8402    3.4014   51.0665 C.2     1  ZINC000957079511   -0.1800
     20 C20        -3.4915    2.6348   50.1897 C.2     1  ZINC000957079511   -0.1400
     21 C21        -9.0932    1.9136   52.1491 C.3     1  ZINC000957079511    0.1100
     22 C22        -9.9997    1.6968   53.3796 C.3     1  ZINC000957079511   -0.1100
     23 H23        -9.6538    2.2939   54.2234 H       1  ZINC000957079511    0.0900
     24 C24       -11.4553    2.0286   53.0448 C.3     1  ZINC000957079511   -0.1400
     25 N25        -8.8249    0.1510   57.6627 N.pl3   1  ZINC000957079511   -0.5600
     26 C26        -7.8528    0.2576   58.5940 C.2     1  ZINC000957079511    0.2000
     27 N27        -7.7885   -0.8618   59.2617 N.2     1  ZINC000957079511   -0.4900
     28 H28        -9.6994   -3.0987   60.0651 H       1  ZINC000957079511    0.0700
     29 H29        -9.3081   -3.7370   58.4502 H       1  ZINC000957079511    0.0600
     30 H30        -8.0214   -3.5366   59.6638 H       1  ZINC000957079511    0.0700
     31 H31       -10.5213   -2.7604   57.1005 H       1  ZINC000957079511    0.1000
     32 H32       -11.4282   -1.2371   57.2599 H       1  ZINC000957079511    0.1200
     33 H33       -10.1135    0.6167   55.7323 H       1  ZINC000957079511    0.4000
     34 H34        -7.6978    0.2588   54.1335 H       1  ZINC000957079511    0.0800
     35 H35        -8.1673   -1.0856   53.0486 H       1  ZINC000957079511    0.0800
     36 H36        -7.6162    1.2442   49.2113 H       1  ZINC000957079511    0.0900
     37 H37        -7.3911    2.5862   50.3589 H       1  ZINC000957079511    0.0900
     38 H38        -6.2939    3.0452   51.9273 H       1  ZINC000957079511    0.1700
     39 H39        -1.7907    3.6507   51.0158 H       1  ZINC000957079511    0.1800
     40 H40        -3.0067    2.1923   49.3321 H       1  ZINC000957079511    0.1500
     41 H41        -8.5827    2.8733   52.2288 H       1  ZINC000957079511    0.0800
     42 H42        -9.6917    1.8841   51.2386 H       1  ZINC000957079511    0.0800
     43 H43       -11.7904    1.4007   52.2192 H       1  ZINC000957079511    0.0600
     44 H44       -12.0802    1.8442   53.9186 H       1  ZINC000957079511    0.0600
     45 H45       -11.5321    3.0774   52.7580 H       1  ZINC000957079511    0.0700
     46 H46        -9.0917    0.8346   57.0284 H       1  ZINC000957079511    0.4200
     47 H47        -7.2340    1.1268   58.7613 H       1  ZINC000957079511    0.2100
@<TRIPOS>BOND
     1     1     2    1
     2     1    28    1
     3     1    29    1
     4     1    30    1
     5     2    27    1
     6     2     3    2
     7     3     4    1
     8     3    25    1
     9     4     5    1
    10     4    31    1
    11     4    32    1
    12     5     6    2
    13     5     7   am
    14     7     8    1
    15     7    33    1
    16     8     9    1
    17     8    22    1
    18     8    10    1
    19    10    11    1
    20    10    34    1
    21    10    35    1
    22    11    12   am
    23    11    21    1
    24    12    13    2
    25    12    14    1
    26    14    15    1
    27    14    36    1
    28    14    37    1
    29    15    16    1
    30    16    20    1
    31    16    17    2
    32    17    18    1
    33    17    38    1
    34    18    19    1
    35    19    20    2
    36    19    39    1
    37    20    40    1
    38    21    22    1
    39    21    41    1
    40    21    42    1
    41    22    23    1
    42    22    24    1
    43    24    43    1
    44    24    44    1
    45    24    45    1
    46    25    26    1
    47    25    46    1
    48    26    27    2
    49    26    47    1
@<TRIPOS>SUBSTRUCTURE
     1 ZINC000957079511        1 TEMP              0 ****  ****    0 ROOT


##########                                Name:    ZINC000461678839
##########                DOCK_Rotatable_Bonds:                   6
##########                         Heavy_Atoms:                  28
##########                    Molecular_Weight:             404.939
##########                DOCK_Rotatable_Bonds:                   6
##########                       Formal_Charge:          -0.0200003
##########                     HBond_Acceptors:                   7
##########                        HBond_Donors:                   0
##########                         Heavy_Atoms:                  28
##########                          Grid_Score:          -33.548588
##########                     Grid_vdw_energy:          -32.768642
##########                      Grid_es_energy:           -0.779945
##########           Internal_energy_repulsive:           15.288081

@<TRIPOS>MOLECULE
ZINC000461678839
 57 60 1 0 0
SMALL
USER_CHARGES


@<TRIPOS>ATOM
      1 C1         -4.3036    3.0170   50.5946 C.3     1  ZINC000461678839   -0.1500
      2 C2         -5.7592    2.5740   50.4334 C.3     1  ZINC000461678839   -0.0900
      3 H3         -5.9885    2.4866   49.3714 H       1  ZINC000461678839    0.0700
      4 C4         -6.6833    3.6408   51.0625 C.3     1  ZINC000461678839   -0.1100
      5 C5         -8.0803    3.4458   50.5365 C.3     1  ZINC000461678839   -0.1200
      6 C6         -8.9328    2.5231   51.4258 C.3     1  ZINC000461678839    0.0600
      7 N7         -8.1977    1.3344   51.9113 N.3     1  ZINC000461678839   -0.4600
      8 C8         -9.0644    0.4086   52.4701 C.2     1  ZINC000461678839    0.3700
      9 N9        -10.0963   -0.1484   51.8813 N.2     1  ZINC000461678839   -0.3100
     10 N10       -10.6765   -0.9593   52.6923 N.2     1  ZINC000461678839   -0.2500
     11 C11       -10.0546   -0.9676   53.8371 C.2     1  ZINC000461678839    0.1700
     12 C12       -10.4226   -1.7862   55.0478 C.3     1  ZINC000461678839    0.1500
     13 O13       -11.8403   -1.7634   55.2251 O.3     1  ZINC000461678839   -0.3100
     14 C14       -12.3036   -1.8275   56.5013 C.ar    1  ZINC000461678839    0.1400
     15 C15       -13.6048   -1.4416   56.7880 C.ar    1  ZINC000461678839   -0.2000
     16 C16       -14.0739   -1.5074   58.0857 C.ar    1  ZINC000461678839   -0.0700
     17 C17       -13.2466   -1.9575   59.0993 C.ar    1  ZINC000461678839   -0.0700
     18 Cl18      -13.8380   -2.0388   60.7294 Cl      1  ZINC000461678839   -0.0700
     19 C19       -11.9485   -2.3433   58.8153 C.ar    1  ZINC000461678839   -0.0700
     20 C20       -11.4776   -2.2843   57.5180 C.ar    1  ZINC000461678839   -0.1400
     21 N21        -9.0023   -0.1003   53.7346 N.pl3   1  ZINC000461678839   -0.4600
     22 C22        -8.0178    0.2221   54.7705 C.3     1  ZINC000461678839    0.1200
     23 C23        -8.3143    1.6101   55.3416 C.3     1  ZINC000461678839   -0.1400
     24 H24        -8.0875    2.3810   54.6051 H       1  ZINC000461678839    0.0900
     25 C25        -7.5047    1.8461   56.6398 C.3     1  ZINC000461678839   -0.1500
     26 C26        -8.5377    2.5716   57.5393 C.3     1  ZINC000461678839    0.0500
     27 O27        -9.7846    1.9213   57.2123 O.3     1  ZINC000461678839   -0.3700
     28 C28        -9.7861    1.7067   55.7878 C.3     1  ZINC000461678839    0.0400
     29 C29        -7.3622    0.7206   50.9074 C.3     1  ZINC000461678839    0.0700
     30 C30        -5.9332    1.2715   51.0667 C.3     1  ZINC000461678839   -0.1100
     31 H31        -3.6461    2.2781   50.1364 H       1  ZINC000461678839    0.0500
     32 H32        -4.1613    3.9817   50.1074 H       1  ZINC000461678839    0.0500
     33 H33        -4.0664    3.1068   51.6547 H       1  ZINC000461678839    0.0600
     34 H34        -6.6828    3.5306   52.1469 H       1  ZINC000461678839    0.0700
     35 H35        -6.3279    4.6358   50.7946 H       1  ZINC000461678839    0.0700
     36 H36        -8.5688    4.4179   50.4690 H       1  ZINC000461678839    0.0800
     37 H37        -8.0221    3.0146   49.5371 H       1  ZINC000461678839    0.0700
     38 H38        -9.2833    3.0930   52.2864 H       1  ZINC000461678839    0.0700
     39 H39        -9.7989    2.1893   50.8544 H       1  ZINC000461678839    0.0500
     40 H40       -10.0907   -2.8146   54.9055 H       1  ZINC000461678839    0.0800
     41 H41        -9.9392   -1.3671   55.9302 H       1  ZINC000461678839    0.1000
     42 H42       -14.2507   -1.0895   55.9972 H       1  ZINC000461678839    0.1400
     43 H43       -15.0869   -1.2070   58.3093 H       1  ZINC000461678839    0.1400
     44 H44       -11.3043   -2.6947   59.6077 H       1  ZINC000461678839    0.1400
     45 H45       -10.4643   -2.5855   57.2966 H       1  ZINC000461678839    0.1400
     46 H46        -8.0738   -0.5187   55.5682 H       1  ZINC000461678839    0.1100
     47 H47        -7.0179    0.2136   54.3365 H       1  ZINC000461678839    0.1000
     48 H48        -7.1985    0.8994   57.0849 H       1  ZINC000461678839    0.0800
     49 H49        -6.6404    2.4823   56.4491 H       1  ZINC000461678839    0.0900
     50 H50        -8.2957    2.4301   58.5927 H       1  ZINC000461678839    0.1000
     51 H51        -8.5822    3.6327   57.2937 H       1  ZINC000461678839    0.0600
     52 H52       -10.2740    2.5431   55.2874 H       1  ZINC000461678839    0.0500
     53 H53       -10.3058    0.7777   55.5535 H       1  ZINC000461678839    0.1100
     54 H54        -7.3570   -0.3607   51.0450 H       1  ZINC000461678839    0.0900
     55 H55        -7.7419    0.9633   49.9150 H       1  ZINC000461678839    0.0600
     56 H56        -5.2324    0.5672   50.6183 H       1  ZINC000461678839    0.0700
     57 H57        -5.7070    1.3619   52.1291 H       1  ZINC000461678839    0.0700
@<TRIPOS>BOND
     1     1     2    1
     2     1    31    1
     3     1    32    1
     4     1    33    1
     5     2     3    1
     6     2    30    1
     7     2     4    1
     8     4     5    1
     9     4    34    1
    10     4    35    1
    11     5     6    1
    12     5    36    1
    13     5    37    1
    14     6     7    1
    15     6    38    1
    16     6    39    1
    17     7     8    1
    18     7    29    1
    19     8    21    1
    20     8     9    2
    21     9    10    1
    22    10    11    2
    23    11    12    1
    24    11    21    1
    25    12    13    1
    26    12    40    1
    27    12    41    1
    28    13    14    1
    29    14    20   ar
    30    14    15   ar
    31    15    16   ar
    32    15    42    1
    33    16    17   ar
    34    16    43    1
    35    17    18    1
    36    17    19   ar
    37    19    20   ar
    38    19    44    1
    39    20    45    1
    40    21    22    1
    41    22    23    1
    42    22    46    1
    43    22    47    1
    44    23    24    1
    45    23    28    1
    46    23    25    1
    47    25    26    1
    48    25    48    1
    49    25    49    1
    50    26    27    1
    51    26    50    1
    52    26    51    1
    53    27    28    1
    54    28    52    1
    55    28    53    1
    56    29    30    1
    57    29    54    1
    58    29    55    1
    59    30    56    1
    60    30    57    1
@<TRIPOS>SUBSTRUCTURE
     1 ZINC000461678839        1 TEMP              0 ****  ****    0 ROOT


##########                                Name:    ZINC000534799364
##########                DOCK_Rotatable_Bonds:                   4
##########                         Heavy_Atoms:                  29
##########                    Molecular_Weight:             391.491
##########                DOCK_Rotatable_Bonds:                   4
##########                       Formal_Charge:           0.0199998
##########                     HBond_Acceptors:                   6
##########                        HBond_Donors:                   0
##########                         Heavy_Atoms:                  29
##########                          Grid_Score:          -33.545788
##########                     Grid_vdw_energy:          -33.604763
##########                      Grid_es_energy:            0.058974
##########           Internal_energy_repulsive:           10.165213

@<TRIPOS>MOLECULE
ZINC000534799364
 55 59 1 0 0
SMALL
USER_CHARGES


@<TRIPOS>ATOM
      1 C1        -11.7985   -0.0879   52.3061 C.3     1  ZINC000534799364   -0.1100
      2 C2        -11.0161   -0.3817   53.5602 C.ar    1  ZINC000534799364   -0.0200
      3 C3        -11.5966   -1.0670   54.6144 C.ar    1  ZINC000534799364   -0.1700
      4 C4        -10.8486   -1.3189   55.7498 C.ar    1  ZINC000534799364    0.1000
      5 N5         -9.5963   -0.9163   55.8394 N.ar    1  ZINC000534799364   -0.4800
      6 C6         -9.0055   -0.2612   54.8599 C.ar    1  ZINC000534799364    0.0800
      7 C7         -9.6894    0.0243   53.6853 C.ar    1  ZINC000534799364    0.0300
      8 N8         -9.0597    0.7184   52.6491 N.3     1  ZINC000534799364   -0.5000
      9 C9         -7.6867    0.2341   52.4491 C.3     1  ZINC000534799364    0.0600
     10 C10        -7.0604    0.9621   51.2574 C.3     1  ZINC000534799364    0.0600
     11 N11        -7.0738    2.4099   51.5089 N.3     1  ZINC000534799364   -0.5300
     12 C12        -6.4116    3.1396   50.4193 C.3     1  ZINC000534799364    0.1400
     13 C13        -4.9203    2.9484   50.5203 C.2     1  ZINC000534799364    0.1100
     14 N14        -4.1882    2.2041   49.7325 N.2     1  ZINC000534799364   -0.2800
     15 N15        -2.8572    2.2941   50.1574 N.pl3   1  ZINC000534799364   -0.3100
     16 C16        -1.7593    1.6438   49.5754 C.ar    1  ZINC000534799364    0.1500
     17 C17        -1.9071    0.3688   49.0463 C.ar    1  ZINC000534799364   -0.1000
     18 C18        -0.8248   -0.2699   48.4736 C.ar    1  ZINC000534799364   -0.1300
     19 C19         0.4073    0.3607   48.4269 C.ar    1  ZINC000534799364    0.1000
     20 F20         1.4648   -0.2655   47.8660 F       1  ZINC000534799364   -0.1300
     21 C21         0.5566    1.6326   48.9542 C.ar    1  ZINC000534799364   -0.1300
     22 C22        -0.5248    2.2767   49.5225 C.ar    1  ZINC000534799364   -0.0800
     23 C23        -2.8175    3.1205   51.2302 C.2     1  ZINC000534799364    0.0500
     24 C24        -4.0786    3.5427   51.4712 C.2     1  ZINC000534799364   -0.2200
     25 C25        -4.0998    4.4743   52.6641 C.3     1  ZINC000534799364   -0.0400
     26 C26        -2.7569    4.2300   53.3864 C.3     1  ZINC000534799364   -0.1200
     27 C27        -1.8601    3.7265   52.2331 C.3     1  ZINC000534799364   -0.0500
     28 C28        -8.4468    2.8941   51.7089 C.3     1  ZINC000534799364    0.0600
     29 C29        -9.0731    2.1662   52.9006 C.3     1  ZINC000534799364    0.0600
     30 H30       -11.6030   -0.8637   51.5658 H       1  ZINC000534799364    0.0800
     31 H31       -12.8633   -0.0677   52.5385 H       1  ZINC000534799364    0.0600
     32 H32       -11.4952    0.8799   51.9070 H       1  ZINC000534799364    0.0800
     33 H33       -12.6218   -1.4005   54.5507 H       1  ZINC000534799364    0.1400
     34 H34       -11.2966   -1.8526   56.5750 H       1  ZINC000534799364    0.1600
     35 H35        -7.9780    0.0527   54.9701 H       1  ZINC000534799364    0.1500
     36 H36        -7.0978    0.4300   53.3452 H       1  ZINC000534799364    0.0500
     37 H37        -7.7043   -0.8378   52.2522 H       1  ZINC000534799364    0.0800
     38 H38        -6.0322    0.6254   51.1250 H       1  ZINC000534799364    0.0900
     39 H39        -7.6335    0.7442   50.3561 H       1  ZINC000534799364    0.0500
     40 H40        -6.7628    2.7581   49.4605 H       1  ZINC000534799364    0.1000
     41 H41        -6.6480    4.2008   50.4967 H       1  ZINC000534799364    0.0500
     42 H42        -2.8677   -0.1233   49.0829 H       1  ZINC000534799364    0.1400
     43 H43        -0.9393   -1.2619   48.0623 H       1  ZINC000534799364    0.1500
     44 H44         1.5183    2.1226   48.9173 H       1  ZINC000534799364    0.1500
     45 H45        -0.4081    3.2687   49.9333 H       1  ZINC000534799364    0.1400
     46 H46        -4.1692    5.5107   52.3339 H       1  ZINC000534799364    0.0800
     47 H47        -4.9338    4.2288   53.3215 H       1  ZINC000534799364    0.0700
     48 H48        -2.3660    5.1570   53.8056 H       1  ZINC000534799364    0.0800
     49 H49        -2.8637    3.4693   54.1598 H       1  ZINC000534799364    0.0800
     50 H50        -1.1657    2.9687   52.5961 H       1  ZINC000534799364    0.0800
     51 H51        -1.3149    4.5580   51.7864 H       1  ZINC000534799364    0.0900
     52 H52        -8.4292    3.9661   51.9058 H       1  ZINC000534799364    0.0900
     53 H53        -9.0356    2.6982   50.8128 H       1  ZINC000534799364    0.0500
     54 H54       -10.1013    2.5029   53.0330 H       1  ZINC000534799364    0.0800
     55 H55        -8.4999    2.3840   53.8018 H       1  ZINC000534799364    0.0500
@<TRIPOS>BOND
     1     1     2    1
     2     1    30    1
     3     1    31    1
     4     1    32    1
     5     2     7   ar
     6     2     3   ar
     7     3     4   ar
     8     3    33    1
     9     4     5   ar
    10     4    34    1
    11     5     6   ar
    12     6     7   ar
    13     6    35    1
    14     7     8    1
    15     8    29    1
    16     8     9    1
    17     9    10    1
    18     9    36    1
    19     9    37    1
    20    10    11    1
    21    10    38    1
    22    10    39    1
    23    11    12    1
    24    11    28    1
    25    12    13    1
    26    12    40    1
    27    12    41    1
    28    13    24    1
    29    13    14    2
    30    14    15    1
    31    15    16    1
    32    15    23    1
    33    16    22   ar
    34    16    17   ar
    35    17    18   ar
    36    17    42    1
    37    18    19   ar
    38    18    43    1
    39    19    20    1
    40    19    21   ar
    41    21    22   ar
    42    21    44    1
    43    22    45    1
    44    23    27    1
    45    23    24    2
    46    24    25    1
    47    25    26    1
    48    25    46    1
    49    25    47    1
    50    26    27    1
    51    26    48    1
    52    26    49    1
    53    27    50    1
    54    27    51    1
    55    28    29    1
    56    28    52    1
    57    28    53    1
    58    29    54    1
    59    29    55    1
@<TRIPOS>SUBSTRUCTURE
     1 ZINC000534799364        1 TEMP              0 ****  ****    0 ROOT


##########                                Name:    ZINC000373864439
##########                DOCK_Rotatable_Bonds:                   7
##########                         Heavy_Atoms:                  23
##########                    Molecular_Weight:              344.45
##########                DOCK_Rotatable_Bonds:                   7
##########                       Formal_Charge:          -0.0300001
##########                     HBond_Acceptors:                   7
##########                        HBond_Donors:                   1
##########                         Heavy_Atoms:                  23
##########                          Grid_Score:          -33.530937
##########                     Grid_vdw_energy:          -30.853109
##########                      Grid_es_energy:           -2.677828
##########           Internal_energy_repulsive:           21.820805

@<TRIPOS>MOLECULE
ZINC000373864439
 48 49 1 0 0
SMALL
USER_CHARGES


@<TRIPOS>ATOM
      1 C1         -9.8769    1.6989   66.6392 C.3     1  ZINC000373864439   -0.1500
      2 C2         -8.3644    1.9260   66.6821 C.3     1  ZINC000373864439   -0.6300
      3 S3         -7.5100    0.4013   66.1963 S.o2    1  ZINC000373864439    2.6100
      4 O4         -6.1623    0.4198   66.6464 O.2     1  ZINC000373864439   -0.9500
      5 O5         -8.3415   -0.7291   66.4198 O.2     1  ZINC000373864439   -0.9600
      6 N6         -7.3914    0.5016   64.5476 N.am    1  ZINC000373864439   -1.1200
      7 C7         -8.6036    0.5961   63.7304 C.3     1  ZINC000373864439    0.1100
      8 C8         -8.2548    0.3192   62.2666 C.3     1  ZINC000373864439    0.0500
      9 N9         -9.3827   -0.3593   61.6144 N.3     1  ZINC000373864439   -0.5300
     10 C10        -8.9246   -1.1647   60.4750 C.3     1  ZINC000373864439    0.0400
     11 C11       -10.0988   -1.9685   59.9119 C.3     1  ZINC000373864439   -0.1300
     12 C12       -11.2042   -1.0060   59.4691 C.3     1  ZINC000373864439    0.1800
     13 F13       -10.7239   -0.1814   58.4460 F       1  ZINC000373864439   -0.2100
     14 C14       -12.3870   -1.7938   58.9675 C.ar    1  ZINC000373864439   -0.1500
     15 C15       -13.5812   -1.7644   59.6607 C.ar    1  ZINC000373864439   -0.0700
     16 C16       -14.6668   -2.4875   59.2011 C.ar    1  ZINC000373864439   -0.1600
     17 C17       -14.5598   -3.2410   58.0471 C.ar    1  ZINC000373864439   -0.0700
     18 C18       -13.3675   -3.2734   57.3497 C.ar    1  ZINC000373864439   -0.2100
     19 C19       -12.2787   -2.5447   57.8057 C.ar    1  ZINC000373864439    0.1400
     20 O20       -11.1048   -2.5749   57.1217 O.3     1  ZINC000373864439   -0.3100
     21 C21       -11.1820   -2.4975   55.6969 C.3     1  ZINC000373864439    0.0200
     22 C22       -11.6295   -0.1459   60.6623 C.3     1  ZINC000373864439   -0.1300
     23 C23       -10.4109    0.6051   61.2036 C.3     1  ZINC000373864439    0.0600
     24 H24       -10.1437    0.8975   67.3283 H       1  ZINC000373864439    0.0700
     25 H25       -10.3902    2.6150   66.9311 H       1  ZINC000373864439    0.0800
     26 H26       -10.1742    1.4223   65.6277 H       1  ZINC000373864439    0.0700
     27 H27        -8.0976    2.7273   65.9930 H       1  ZINC000373864439    0.1300
     28 H28        -8.0670    2.2025   67.6937 H       1  ZINC000373864439    0.1300
     29 H29        -6.5193    0.4977   64.1229 H       1  ZINC000373864439    0.4200
     30 H30        -9.3325   -0.1374   64.0753 H       1  ZINC000373864439    0.0700
     31 H31        -9.0252    1.5973   63.8202 H       1  ZINC000373864439    0.0900
     32 H32        -8.0534    1.2613   61.7566 H       1  ZINC000373864439    0.0900
     33 H33        -7.3708   -0.3166   62.2178 H       1  ZINC000373864439    0.0400
     34 H34        -8.5302   -0.5068   59.7005 H       1  ZINC000373864439    0.0400
     35 H35        -8.1416   -1.8477   60.8044 H       1  ZINC000373864439    0.0900
     36 H36        -9.7620   -2.5541   59.0566 H       1  ZINC000373864439    0.0800
     37 H37       -10.4849   -2.6366   60.6817 H       1  ZINC000373864439    0.1000
     38 H38       -13.6673   -1.1766   60.5626 H       1  ZINC000373864439    0.1300
     39 H39       -15.5995   -2.4638   59.7450 H       1  ZINC000373864439    0.1300
     40 H40       -15.4089   -3.8052   57.6903 H       1  ZINC000373864439    0.1300
     41 H41       -13.2843   -3.8625   56.4484 H       1  ZINC000373864439    0.1300
     42 H42       -10.1771   -2.5318   55.2761 H       1  ZINC000373864439    0.1000
     43 H43       -11.7632   -3.3385   55.3183 H       1  ZINC000373864439    0.0600
     44 H44       -11.6647   -1.5635   55.4093 H       1  ZINC000373864439    0.0600
     45 H45       -12.3863    0.5707   60.3430 H       1  ZINC000373864439    0.0800
     46 H46       -12.0397   -0.7853   61.4439 H       1  ZINC000373864439    0.1000
     47 H47       -10.7075    1.2075   62.0623 H       1  ZINC000373864439    0.0800
     48 H48       -10.0097    1.2547   60.4258 H       1  ZINC000373864439    0.0400
@<TRIPOS>BOND
     1     1     2    1
     2     1    24    1
     3     1    25    1
     4     1    26    1
     5     2     3    1
     6     2    27    1
     7     2    28    1
     8     3     4    2
     9     3     5    2
    10     3     6   am
    11     6     7    1
    12     6    29    1
    13     7     8    1
    14     7    30    1
    15     7    31    1
    16     8     9    1
    17     8    32    1
    18     8    33    1
    19     9    23    1
    20     9    10    1
    21    10    11    1
    22    10    34    1
    23    10    35    1
    24    11    12    1
    25    11    36    1
    26    11    37    1
    27    12    13    1
    28    12    14    1
    29    12    22    1
    30    14    19   ar
    31    14    15   ar
    32    15    16   ar
    33    15    38    1
    34    16    17   ar
    35    16    39    1
    36    17    18   ar
    37    17    40    1
    38    18    19   ar
    39    18    41    1
    40    19    20    1
    41    20    21    1
    42    21    42    1
    43    21    43    1
    44    21    44    1
    45    22    23    1
    46    22    45    1
    47    22    46    1
    48    23    47    1
    49    23    48    1
@<TRIPOS>SUBSTRUCTURE
     1 ZINC000373864439        1 TEMP              0 ****  ****    0 ROOT


##########                                Name:    ZINC001018437438
##########                DOCK_Rotatable_Bonds:                   8
##########                         Heavy_Atoms:                  24
##########                    Molecular_Weight:              333.39
##########                DOCK_Rotatable_Bonds:                   8
##########                       Formal_Charge:        -4.17233e-07
##########                     HBond_Acceptors:                   8
##########                        HBond_Donors:                   4
##########                         Heavy_Atoms:                  24
##########                          Grid_Score:          -33.525684
##########                     Grid_vdw_energy:          -31.685198
##########                      Grid_es_energy:           -1.840488
##########           Internal_energy_repulsive:           87.825073

@<TRIPOS>MOLECULE
ZINC001018437438
 47 49 1 0 0
SMALL
USER_CHARGES


@<TRIPOS>ATOM
      1 C1         -9.7857    3.5407   52.1334 C.3     1  ZINC001018437438   -0.1400
      2 C2         -8.7526    2.8942   51.2085 C.3     1  ZINC001018437438    0.1400
      3 H3         -9.2372    2.5749   50.2858 H       1  ZINC001018437438    0.0700
      4 C4         -7.6484    3.9056   50.8851 C.3     1  ZINC001018437438   -0.1300
      5 C5         -6.5493    3.2137   50.0757 C.3     1  ZINC001018437438   -0.1300
      6 C6         -5.9392    2.0812   50.9047 C.3     1  ZINC001018437438    0.1300
      7 H7         -5.5345    2.4864   51.8320 H       1  ZINC001018437438    0.1000
      8 N8         -4.8655    1.4402   50.1414 N.am    1  ZINC001018437438   -0.7200
      9 C9         -3.6003    1.8922   50.2481 C.2     1  ZINC001018437438    0.6000
     10 O10        -3.3497    2.8314   50.9792 O.2     1  ZINC001018437438   -0.5100
     11 C11        -2.5221    1.2495   49.4801 C.2     1  ZINC001018437438   -0.0400
     12 C12        -1.1789    1.5831   49.4949 C.2     1  ZINC001018437438   -0.1400
     13 C13        -0.5668    0.6932   48.6091 C.2     1  ZINC001018437438    0.0600
     14 C14         0.9013    0.6452   48.2727 C.3     1  ZINC001018437438   -0.0800
     15 C15         1.6177    1.9777   48.0447 C.3     1  ZINC001018437438   -0.1700
     16 C16         1.8836    1.1746   49.3195 C.3     1  ZINC001018437438   -0.1600
     17 N17        -1.4946   -0.0918   48.1238 N.2     1  ZINC001018437438   -0.2600
     18 N18        -2.6454    0.2002   48.6141 N.pl3   1  ZINC001018437438   -0.3800
     19 C19        -7.0239    1.0490   51.2282 C.3     1  ZINC001018437438    0.1000
     20 N20        -8.1521    1.7319   51.8770 N.am    1  ZINC001018437438   -0.6100
     21 C21        -8.6231    1.3030   53.0647 C.2     1  ZINC001018437438    0.5200
     22 O22        -9.5516    1.8780   53.5921 O.2     1  ZINC001018437438   -0.4800
     23 C23        -7.9960    0.1091   53.7373 C.3     1  ZINC001018437438   -0.1700
     24 C24        -8.7099   -0.1686   55.0352 C.2     1  ZINC001018437438    0.5200
     25 N25        -8.3212    0.4551   56.1649 N.am    1  ZINC001018437438   -0.8600
     26 O26        -9.6342   -0.9533   55.0630 O.2     1  ZINC001018437438   -0.5000
     27 H27        -9.3221    3.7681   53.0933 H       1  ZINC001018437438    0.0700
     28 H28       -10.1532    4.4614   51.6803 H       1  ZINC001018437438    0.0500
     29 H29       -10.6178    2.8534   52.2855 H       1  ZINC001018437438    0.0800
     30 H30        -8.0666    4.7270   50.3031 H       1  ZINC001018437438    0.0900
     31 H31        -7.2276    4.2937   51.8127 H       1  ZINC001018437438    0.0700
     32 H32        -6.9758    2.8044   49.1599 H       1  ZINC001018437438    0.0700
     33 H33        -5.7741    3.9372   49.8231 H       1  ZINC001018437438    0.0800
     34 H34        -5.0651    0.6904   49.5593 H       1  ZINC001018437438    0.4000
     35 H35        -0.7047    2.3652   50.0691 H       1  ZINC001018437438    0.1700
     36 H36         1.2180   -0.2065   47.6706 H       1  ZINC001018437438    0.1200
     37 H37         2.4060    2.0030   47.2922 H       1  ZINC001018437438    0.1000
     38 H38         1.0272    2.8891   48.1379 H       1  ZINC001018437438    0.1000
     39 H39         1.4679    1.5576   50.2515 H       1  ZINC001018437438    0.1000
     40 H40         2.8466    0.6715   49.4058 H       1  ZINC001018437438    0.1000
     41 H41        -3.4762   -0.2509   48.3973 H       1  ZINC001018437438    0.4400
     42 H42        -7.3659    0.5774   50.3069 H       1  ZINC001018437438    0.0700
     43 H43        -6.6194    0.2922   51.9002 H       1  ZINC001018437438    0.0900
     44 H44        -8.0775   -0.7600   53.0847 H       1  ZINC001018437438    0.1200
     45 H45        -6.9448    0.3156   53.9379 H       1  ZINC001018437438    0.1200
     46 H46        -8.7798    0.2757   57.0005 H       1  ZINC001018437438    0.4000
     47 H47        -7.5827    1.0836   56.1423 H       1  ZINC001018437438    0.4000
@<TRIPOS>BOND
     1     1     2    1
     2     1    27    1
     3     1    28    1
     4     1    29    1
     5     2     3    1
     6     2    20    1
     7     2     4    1
     8     4     5    1
     9     4    30    1
    10     4    31    1
    11     5     6    1
    12     5    32    1
    13     5    33    1
    14     6     7    1
    15     6     8    1
    16     6    19    1
    17     8     9   am
    18     8    34    1
    19     9    10    2
    20     9    11    1
    21    11    18    1
    22    11    12    2
    23    12    13    1
    24    12    35    1
    25    13    14    1
    26    13    17    2
    27    14    16    1
    28    14    15    1
    29    14    36    1
    30    15    16    1
    31    15    37    1
    32    15    38    1
    33    16    39    1
    34    16    40    1
    35    17    18    1
    36    18    41    1
    37    19    20    1
    38    19    42    1
    39    19    43    1
    40    20    21   am
    41    21    22    2
    42    21    23    1
    43    23    24    1
    44    23    44    1
    45    23    45    1
    46    24    25   am
    47    24    26    2
    48    25    46    1
    49    25    47    1
@<TRIPOS>SUBSTRUCTURE
     1 ZINC001018437438        1 TEMP              0 ****  ****    0 ROOT


##########                                Name:    ZINC000550217006
##########                DOCK_Rotatable_Bonds:                   7
##########                         Heavy_Atoms:                  27
##########                    Molecular_Weight:             367.404
##########                DOCK_Rotatable_Bonds:                   7
##########                       Formal_Charge:          0.00999951
##########                     HBond_Acceptors:                   7
##########                        HBond_Donors:                   3
##########                         Heavy_Atoms:                  27
##########                          Grid_Score:          -33.522301
##########                     Grid_vdw_energy:          -32.550659
##########                      Grid_es_energy:           -0.971641
##########           Internal_energy_repulsive:           12.498617

@<TRIPOS>MOLECULE
ZINC000550217006
 48 50 1 0 0
SMALL
USER_CHARGES


@<TRIPOS>ATOM
      1 C1        -13.4550    2.0749   61.5754 C.3     1  ZINC000550217006   -0.1500
      2 C2        -12.2543    1.9624   62.5170 C.3     1  ZINC000550217006    0.0500
      3 O3        -11.3133    1.0309   61.9798 O.3     1  ZINC000550217006   -0.3100
      4 C4        -10.1812    0.8130   62.6994 C.ar    1  ZINC000550217006    0.1400
      5 C5         -9.9806    1.4815   63.8982 C.ar    1  ZINC000550217006   -0.2100
      6 C6         -8.8291    1.2578   64.6283 C.ar    1  ZINC000550217006   -0.0800
      7 C7         -7.8771    0.3691   64.1647 C.ar    1  ZINC000550217006   -0.1600
      8 C8         -8.0745   -0.2983   62.9697 C.ar    1  ZINC000550217006   -0.0700
      9 C9         -9.2267   -0.0828   62.2392 C.ar    1  ZINC000550217006   -0.1200
     10 C10        -9.4415   -0.8108   60.9373 C.3     1  ZINC000550217006   -0.0800
     11 C11        -8.1118   -0.9193   60.1883 C.3     1  ZINC000550217006    0.1300
     12 N12        -8.3692   -1.0396   58.7512 N.am    1  ZINC000550217006   -0.7200
     13 C13        -8.2309    0.0349   57.9495 C.2     1  ZINC000550217006    0.5600
     14 O14        -7.8939    1.1040   58.4189 O.2     1  ZINC000550217006   -0.5300
     15 C15        -8.4893   -0.0871   56.4967 C.ar    1  ZINC000550217006   -0.0800
     16 C16        -9.3351   -1.0904   56.0179 C.ar    1  ZINC000550217006   -0.1000
     17 C17        -9.5712   -1.2010   54.6695 C.ar    1  ZINC000550217006   -0.0500
     18 C18        -8.9715   -0.3138   53.7603 C.ar    1  ZINC000550217006   -0.1300
     19 C19        -8.1292    0.6912   54.2347 C.ar    1  ZINC000550217006    0.1800
     20 C20        -7.8958    0.7994   55.6069 C.ar    1  ZINC000550217006   -0.0900
     21 N21        -7.5058    1.6147   53.4130 N.am    1  ZINC000550217006   -0.6600
     22 C22        -6.9483    1.3519   52.2350 C.2     1  ZINC000550217006    0.5100
     23 O23        -6.3927    2.2470   51.6342 O.2     1  ZINC000550217006   -0.5100
     24 C24        -6.9860   -0.0228   51.6255 C.3     1  ZINC000550217006    0.0900
     25 N25        -8.3780   -0.3804   51.3525 N.am    1  ZINC000550217006   -0.7100
     26 C26        -9.2708   -0.5016   52.3334 C.2     1  ZINC000550217006    0.5600
     27 O27       -10.4121   -0.7873   52.0275 O.2     1  ZINC000550217006   -0.5200
     28 H28       -13.9286    1.0986   61.4723 H       1  ZINC000550217006    0.0700
     29 H29       -14.1727    2.7855   61.9851 H       1  ZINC000550217006    0.0800
     30 H30       -13.1190    2.4207   60.5978 H       1  ZINC000550217006    0.0700
     31 H31       -11.7806    2.9388   62.6200 H       1  ZINC000550217006    0.0600
     32 H32       -12.5903    1.6166   63.4946 H       1  ZINC000550217006    0.0600
     33 H33       -10.7238    2.1765   64.2603 H       1  ZINC000550217006    0.1300
     34 H34        -8.6725    1.7781   65.5616 H       1  ZINC000550217006    0.1300
     35 H35        -6.9774    0.1959   64.7367 H       1  ZINC000550217006    0.1300
     36 H36        -7.3291   -0.9918   62.6095 H       1  ZINC000550217006    0.1300
     37 H37        -9.8274   -1.8100   61.1392 H       1  ZINC000550217006    0.0800
     38 H38       -10.1583   -0.2609   60.3274 H       1  ZINC000550217006    0.0800
     39 H39        -7.5146   -0.0272   60.3770 H       1  ZINC000550217006    0.0700
     40 H40        -7.5700   -1.7992   60.5353 H       1  ZINC000550217006    0.0700
     41 H41        -8.6393   -1.8927   58.3765 H       1  ZINC000550217006    0.4000
     42 H42        -9.8025   -1.7784   56.7070 H       1  ZINC000550217006    0.1400
     43 H43       -10.2251   -1.9788   54.3040 H       1  ZINC000550217006    0.1500
     44 H44        -7.2418    1.5742   55.9791 H       1  ZINC000550217006    0.1500
     45 H45        -7.4733    2.5331   53.7235 H       1  ZINC000550217006    0.4200
     46 H46        -6.4189   -0.0252   50.6947 H       1  ZINC000550217006    0.1300
     47 H47        -6.5537   -0.7424   52.3207 H       1  ZINC000550217006    0.1000
     48 H48        -8.6573   -0.5325   50.4361 H       1  ZINC000550217006    0.4200
@<TRIPOS>BOND
     1     1     2    1
     2     1    28    1
     3     1    29    1
     4     1    30    1
     5     2     3    1
     6     2    31    1
     7     2    32    1
     8     3     4    1
     9     4     9   ar
    10     4     5   ar
    11     5     6   ar
    12     5    33    1
    13     6     7   ar
    14     6    34    1
    15     7     8   ar
    16     7    35    1
    17     8     9   ar
    18     8    36    1
    19     9    10    1
    20    10    11    1
    21    10    37    1
    22    10    38    1
    23    11    12    1
    24    11    39    1
    25    11    40    1
    26    12    13   am
    27    12    41    1
    28    13    14    2
    29    13    15    1
    30    15    20   ar
    31    15    16   ar
    32    16    17   ar
    33    16    42    1
    34    17    18   ar
    35    17    43    1
    36    18    26    1
    37    18    19   ar
    38    19    20   ar
    39    19    21    1
    40    20    44    1
    41    21    22   am
    42    21    45    1
    43    22    23    2
    44    22    24    1
    45    24    25    1
    46    24    46    1
    47    24    47    1
    48    25    26   am
    49    25    48    1
    50    26    27    2
@<TRIPOS>SUBSTRUCTURE
     1 ZINC000550217006        1 TEMP              0 ****  ****    0 ROOT


##########                                Name:    ZINC000746432885
##########                DOCK_Rotatable_Bonds:                  11
##########                         Heavy_Atoms:                  31
##########                    Molecular_Weight:              419.44
##########                DOCK_Rotatable_Bonds:                  11
##########                       Formal_Charge:           0.0199995
##########                     HBond_Acceptors:                   9
##########                        HBond_Donors:                   2
##########                         Heavy_Atoms:                  31
##########                          Grid_Score:          -33.482143
##########                     Grid_vdw_energy:          -33.255932
##########                      Grid_es_energy:           -0.226213
##########           Internal_energy_repulsive:           15.076050

@<TRIPOS>MOLECULE
ZINC000746432885
 52 54 1 0 0
SMALL
USER_CHARGES


@<TRIPOS>ATOM
      1 C1         -9.1776    1.1544   62.9502 C.3     1  ZINC000746432885    0.0300
      2 O2         -8.1783    2.1049   62.5759 O.3     1  ZINC000746432885   -0.3200
      3 C3         -7.9871    2.3077   61.2457 C.ar    1  ZINC000746432885    0.1300
      4 C4         -7.0214    3.2039   60.8113 C.ar    1  ZINC000746432885   -0.2000
      5 C5         -6.8291    3.4084   59.4588 C.ar    1  ZINC000746432885   -0.0800
      6 C6         -7.5983    2.7210   58.5382 C.ar    1  ZINC000746432885   -0.1400
      7 C7         -8.5614    1.8272   58.9686 C.ar    1  ZINC000746432885   -0.0600
      8 C8         -9.3978    1.0793   57.9626 C.3     1  ZINC000746432885    0.2300
      9 N9         -8.6629    0.9720   56.6998 N.am    1  ZINC000746432885   -0.6900
     10 C10        -9.3323    0.7955   55.5434 C.2     1  ZINC000746432885    0.5200
     11 O11       -10.5440    0.7268   55.5480 O.2     1  ZINC000746432885   -0.5100
     12 C12        -8.5831    0.6843   54.2565 C.2     1  ZINC000746432885    0.5100
     13 O13        -9.1051    0.1609   53.2935 O.2     1  ZINC000746432885   -0.5100
     14 N14        -7.3274    1.1651   54.1640 N.am    1  ZINC000746432885   -0.6100
     15 C15        -6.6232    1.0621   52.9529 C.2     1  ZINC000746432885    0.0000
     16 C16        -6.0939    2.0931   52.2441 C.2     1  ZINC000746432885    0.0400
     17 N17        -5.5004    1.5734   51.1457 N.pl3   1  ZINC000746432885   -0.3800
     18 C18        -4.8031    2.3314   50.1040 C.3     1  ZINC000746432885    0.2500
     19 C19        -3.7029    1.5191   49.5594 C.1     1  ZINC000746432885    0.1900
     20 N20        -2.8538    0.8924   49.1390 N.1     1  ZINC000746432885   -0.3900
     21 N21        -5.6691    0.1834   51.1791 N.2     1  ZINC000746432885   -0.2800
     22 C22        -6.3354   -0.1251   52.2618 C.2     1  ZINC000746432885    0.0700
     23 C23        -9.6994   -0.3010   58.4870 C.ar    1  ZINC000746432885   -0.0500
     24 C24        -8.6741   -1.2110   58.6663 C.ar    1  ZINC000746432885   -0.1500
     25 C25        -8.9475   -2.4780   59.1478 C.ar    1  ZINC000746432885   -0.0700
     26 C26       -10.2464   -2.8377   59.4508 C.ar    1  ZINC000746432885   -0.2000
     27 C27       -11.2769   -1.9264   59.2717 C.ar    1  ZINC000746432885    0.1300
     28 O28       -12.5556   -2.2778   59.5691 O.3     1  ZINC000746432885   -0.3200
     29 C29       -13.4142   -2.5920   58.4708 C.3     1  ZINC000746432885    0.0300
     30 C30       -10.9993   -0.6540   58.7935 C.ar    1  ZINC000746432885   -0.1300
     31 C31        -8.7534    1.6147   60.3200 C.ar    1  ZINC000746432885   -0.1300
     32 H32        -8.9224    0.1778   62.5388 H       1  ZINC000746432885    0.0600
     33 H33        -9.2279    1.0889   64.0371 H       1  ZINC000746432885    0.1000
     34 H34       -10.1448    1.4714   62.5602 H       1  ZINC000746432885    0.0600
     35 H35        -6.4208    3.7417   61.5300 H       1  ZINC000746432885    0.1300
     36 H36        -6.0773    4.1060   59.1200 H       1  ZINC000746432885    0.1300
     37 H37        -7.4469    2.8827   57.4812 H       1  ZINC000746432885    0.1200
     38 H38       -10.3314    1.6164   57.7952 H       1  ZINC000746432885    0.1200
     39 H39        -7.6945    1.0281   56.6959 H       1  ZINC000746432885    0.4200
     40 H40        -6.9099    1.5823   54.9338 H       1  ZINC000746432885    0.4200
     41 H41        -6.1391    3.1390   52.5098 H       1  ZINC000746432885    0.1900
     42 H42        -5.5020    2.5786   49.3050 H       1  ZINC000746432885    0.1300
     43 H43        -4.3998    3.2496   50.5310 H       1  ZINC000746432885    0.1500
     44 H44        -6.6205   -1.1208   52.5677 H       1  ZINC000746432885    0.2100
     45 H45        -7.6580   -0.9319   58.4297 H       1  ZINC000746432885    0.1200
     46 H46        -8.1449   -3.1873   59.2867 H       1  ZINC000746432885    0.1300
     47 H47       -10.4594   -3.8276   59.8265 H       1  ZINC000746432885    0.1300
     48 H48       -14.4031   -2.8550   58.8464 H       1  ZINC000746432885    0.1000
     49 H49       -13.4937   -1.7268   57.8127 H       1  ZINC000746432885    0.0600
     50 H50       -13.0006   -3.4340   57.9157 H       1  ZINC000746432885    0.0600
     51 H51       -11.7998    0.0573   58.6533 H       1  ZINC000746432885    0.1400
     52 H52        -9.5059    0.9165   60.6558 H       1  ZINC000746432885    0.1300
@<TRIPOS>BOND
     1     1     2    1
     2     1    32    1
     3     1    33    1
     4     1    34    1
     5     2     3    1
     6     3    31   ar
     7     3     4   ar
     8     4     5   ar
     9     4    35    1
    10     5     6   ar
    11     5    36    1
    12     6     7   ar
    13     6    37    1
    14     7     8    1
    15     7    31   ar
    16     8     9    1
    17     8    23    1
    18     8    38    1
    19     9    10   am
    20     9    39    1
    21    10    11    2
    22    10    12    1
    23    12    13    2
    24    12    14   am
    25    14    15    1
    26    14    40    1
    27    15    22    1
    28    15    16    2
    29    16    17    1
    30    16    41    1
    31    17    18    1
    32    17    21    1
    33    18    19    1
    34    18    42    1
    35    18    43    1
    36    19    20    3
    37    21    22    2
    38    22    44    1
    39    23    30   ar
    40    23    24   ar
    41    24    25   ar
    42    24    45    1
    43    25    26   ar
    44    25    46    1
    45    26    27   ar
    46    26    47    1
    47    27    28    1
    48    27    30   ar
    49    28    29    1
    50    29    48    1
    51    29    49    1
    52    29    50    1
    53    30    51    1
    54    31    52    1
@<TRIPOS>SUBSTRUCTURE
     1 ZINC000746432885        1 TEMP              0 ****  ****    0 ROOT


##########                                Name:    ZINC000541000201
##########                DOCK_Rotatable_Bonds:                  10
##########                         Heavy_Atoms:                  30
##########                    Molecular_Weight:             420.413
##########                DOCK_Rotatable_Bonds:                  10
##########                       Formal_Charge:               -0.03
##########                     HBond_Acceptors:                   9
##########                        HBond_Donors:                   1
##########                         Heavy_Atoms:                  30
##########                          Grid_Score:          -33.441238
##########                     Grid_vdw_energy:          -32.141979
##########                      Grid_es_energy:           -1.299259
##########           Internal_energy_repulsive:           16.095657

@<TRIPOS>MOLECULE
ZINC000541000201
 52 54 1 0 0
SMALL
USER_CHARGES


@<TRIPOS>ATOM
      1 C1         -8.8188    4.3104   50.1060 C.3     1  ZINC000541000201    0.0400
      2 O2         -8.0829    3.3406   50.8976 O.3     1  ZINC000541000201   -0.3500
      3 C3         -7.2138    2.5540   50.2437 C.2     1  ZINC000541000201    0.4500
      4 O4         -7.2515    2.4836   49.0381 O.2     1  ZINC000541000201   -0.4900
      5 C5         -6.1910    1.7586   51.0133 C.3     1  ZINC000541000201    0.2100
      6 H6         -5.9339    0.8592   50.4536 H       1  ZINC000541000201    0.1400
      7 N7         -6.7452    1.3813   52.3160 N.am    1  ZINC000541000201   -0.7100
      8 C8         -7.7009    0.4341   52.3929 C.2     1  ZINC000541000201    0.5800
      9 O9         -8.1020   -0.1084   51.3815 O.2     1  ZINC000541000201   -0.5300
     10 C10        -8.2605    0.0552   53.7053 C.ar    1  ZINC000541000201   -0.2300
     11 C11        -7.6968    0.5517   54.8896 C.ar    1  ZINC000541000201    0.0200
     12 C12        -8.2551    0.1686   56.0920 C.ar    1  ZINC000541000201   -0.2000
     13 C13        -9.3497   -0.6902   56.0909 C.ar    1  ZINC000541000201    0.3500
     14 O14        -9.9020   -1.0697   57.2685 O.3     1  ZINC000541000201   -0.2900
     15 C15        -9.5523   -0.3063   58.4249 C.3     1  ZINC000541000201    0.0800
     16 C16       -10.6586   -0.4181   59.5031 C.3     1  ZINC000541000201   -0.1400
     17 C17        -9.8950   -0.0936   60.8112 C.3     1  ZINC000541000201   -0.1200
     18 C18        -8.5183   -0.7634   60.6217 C.3     1  ZINC000541000201   -0.1200
     19 C19        -8.3004   -0.8986   59.1044 C.3     1  ZINC000541000201   -0.1200
     20 N20        -9.8598   -1.1419   54.9552 N.ar    1  ZINC000541000201   -0.5400
     21 C21        -9.3621   -0.7980   53.7859 C.ar    1  ZINC000541000201    0.1800
     22 C22        -4.9538    2.5945   51.2168 C.ar    1  ZINC000541000201   -0.1300
     23 C23        -3.8097    2.3222   50.4897 C.ar    1  ZINC000541000201   -0.0700
     24 C24        -2.6742    3.0870   50.6745 C.ar    1  ZINC000541000201   -0.1300
     25 C25        -2.6827    4.1293   51.5900 C.ar    1  ZINC000541000201    0.1200
     26 O26        -1.5670    4.8833   51.7732 O.3     1  ZINC000541000201   -0.3200
     27 C27        -0.4815    4.2756   52.4762 C.3     1  ZINC000541000201    0.4100
     28 F28         0.5475    3.9763   51.5768 F       1  ZINC000541000201   -0.2000
     29 F29        -0.0057    5.1578   53.4523 F       1  ZINC000541000201   -0.2000
     30 C30        -3.8320    4.4007   52.3179 C.ar    1  ZINC000541000201   -0.1900
     31 C31        -4.9664    3.6359   52.1261 C.ar    1  ZINC000541000201   -0.0500
     32 H32        -9.4844    4.8793   50.7552 H       1  ZINC000541000201    0.1000
     33 H33        -8.1181    4.9891   49.6195 H       1  ZINC000541000201    0.0600
     34 H34        -9.4063    3.7907   49.3491 H       1  ZINC000541000201    0.0600
     35 H35        -6.4243    1.8133   53.1231 H       1  ZINC000541000201    0.4100
     36 H36        -6.8466    1.2170   54.8613 H       1  ZINC000541000201    0.1600
     37 H37        -7.8467    0.5313   57.0238 H       1  ZINC000541000201    0.1500
     38 H38        -9.3830    0.7362   58.1558 H       1  ZINC000541000201    0.1000
     39 H39       -11.4472    0.3129   59.3247 H       1  ZINC000541000201    0.0700
     40 H40       -11.0667   -1.4284   59.5346 H       1  ZINC000541000201    0.0800
     41 H41        -9.7819    0.9840   60.9295 H       1  ZINC000541000201    0.0700
     42 H42       -10.4119   -0.5206   61.6706 H       1  ZINC000541000201    0.0700
     43 H43        -7.7369   -0.1405   61.0570 H       1  ZINC000541000201    0.0700
     44 H44        -8.5148   -1.7483   61.0886 H       1  ZINC000541000201    0.0700
     45 H45        -8.1911   -1.9491   58.8350 H       1  ZINC000541000201    0.0800
     46 H46        -7.4133   -0.3414   58.8034 H       1  ZINC000541000201    0.0700
     47 H47        -9.8052   -1.1864   52.8809 H       1  ZINC000541000201    0.1600
     48 H48        -3.8036    1.5108   49.7771 H       1  ZINC000541000201    0.1300
     49 H49        -1.7806    2.8735   50.1068 H       1  ZINC000541000201    0.1400
     50 H50        -0.8256    3.3577   52.9529 H       1  ZINC000541000201    0.1900
     51 H51        -3.8410    5.2113   53.0316 H       1  ZINC000541000201    0.1400
     52 H52        -5.8616    3.8471   52.6922 H       1  ZINC000541000201    0.1400
@<TRIPOS>BOND
     1     1     2    1
     2     1    32    1
     3     1    33    1
     4     1    34    1
     5     2     3    1
     6     3     4    2
     7     3     5    1
     8     5     6    1
     9     5     7    1
    10     5    22    1
    11     7     8   am
    12     7    35    1
    13     8     9    2
    14     8    10    1
    15    10    21   ar
    16    10    11   ar
    17    11    12   ar
    18    11    36    1
    19    12    13   ar
    20    12    37    1
    21    13    14    1
    22    13    20   ar
    23    14    15    1
    24    15    19    1
    25    15    16    1
    26    15    38    1
    27    16    17    1
    28    16    39    1
    29    16    40    1
    30    17    18    1
    31    17    41    1
    32    17    42    1
    33    18    19    1
    34    18    43    1
    35    18    44    1
    36    19    45    1
    37    19    46    1
    38    20    21   ar
    39    21    47    1
    40    22    31   ar
    41    22    23   ar
    42    23    24   ar
    43    23    48    1
    44    24    25   ar
    45    24    49    1
    46    25    26    1
    47    25    30   ar
    48    26    27    1
    49    27    28    1
    50    27    29    1
    51    27    50    1
    52    30    31   ar
    53    30    51    1
    54    31    52    1
@<TRIPOS>SUBSTRUCTURE
     1 ZINC000541000201        1 TEMP              0 ****  ****    0 ROOT


##########                                Name:    ZINC001120957943
##########                DOCK_Rotatable_Bonds:                   4
##########                         Heavy_Atoms:                  27
##########                    Molecular_Weight:             396.802
##########                DOCK_Rotatable_Bonds:                   4
##########                       Formal_Charge:          -0.0199996
##########                     HBond_Acceptors:                  10
##########                        HBond_Donors:                   0
##########                         Heavy_Atoms:                  27
##########                          Grid_Score:          -33.405071
##########                     Grid_vdw_energy:          -33.512497
##########                      Grid_es_energy:            0.107427
##########           Internal_energy_repulsive:            9.373485

@<TRIPOS>MOLECULE
ZINC001120957943
 43 46 1 0 0
SMALL
USER_CHARGES


@<TRIPOS>ATOM
      1 C1         -6.2616    4.2264   50.8343 C.3     1  ZINC001120957943    0.0900
      2 N2         -5.7813    2.9528   50.2926 N.pl3   1  ZINC001120957943   -0.6000
      3 C3         -6.7395    1.9407   49.8413 C.3     1  ZINC001120957943    0.2200
      4 C4         -6.9940    0.9580   50.9551 C.2     1  ZINC001120957943    0.1600
      5 N5         -6.3258   -0.1423   51.1891 N.2     1  ZINC001120957943   -0.2500
      6 N6         -6.8162   -0.7383   52.2215 N.2     1  ZINC001120957943   -0.2800
      7 C7         -7.8126   -0.0483   52.6872 C.2     1  ZINC001120957943    0.1700
      8 C8         -8.6912   -0.3512   53.8748 C.3     1  ZINC001120957943   -0.0300
      9 C9         -9.9460    0.5269   53.7767 C.3     1  ZINC001120957943   -0.1300
     10 C10        -9.5303    1.9752   53.5030 C.3     1  ZINC001120957943   -0.1500
     11 H11        -8.7693    2.2766   54.2229 H       1  ZINC001120957943    0.1300
     12 C12       -10.7496    2.8894   53.6377 C.3     1  ZINC001120957943    0.4600
     13 F13       -11.7367    2.4868   52.7317 F       1  ZINC001120957943   -0.1700
     14 F14       -11.2518    2.8081   54.9410 F       1  ZINC001120957943   -0.1800
     15 F15       -10.3755    4.2093   53.3635 F       1  ZINC001120957943   -0.1800
     16 C16        -8.9629    2.0874   52.0832 C.3     1  ZINC001120957943    0.1100
     17 N17        -7.9486    1.0495   51.9010 N.pl3   1  ZINC001120957943   -0.4700
     18 C18        -4.4191    2.7052   50.2070 C.ar    1  ZINC001120957943    0.3700
     19 C19        -3.5183    3.5007   50.9364 C.ar    1  ZINC001120957943    0.0500
     20 N20        -2.2274    3.2812   50.8683 N.ar    1  ZINC001120957943   -0.3900
     21 C21        -1.7593    2.2912   50.0979 C.ar    1  ZINC001120957943    0.0400
     22 C22        -0.3807    2.0352   50.0081 C.ar    1  ZINC001120957943   -0.0600
     23 C23         0.0680    1.0211   49.2169 C.ar    1  ZINC001120957943   -0.0400
     24 Cl24        1.7724    0.7092   49.1098 Cl      1  ZINC001120957943   -0.0600
     25 C25        -0.8226    0.2297   48.4922 C.ar    1  ZINC001120957943   -0.0800
     26 C26        -2.1642    0.4494   48.5554 C.ar    1  ZINC001120957943   -0.0800
     27 C27        -2.6638    1.4870   49.3610 C.ar    1  ZINC001120957943    0.1400
     28 N28        -3.9791    1.7213   49.4457 N.ar    1  ZINC001120957943   -0.4700
     29 H29        -6.3953    4.1354   51.9123 H       1  ZINC001120957943    0.0700
     30 H30        -5.5328    5.0089   50.6234 H       1  ZINC001120957943    0.0800
     31 H31        -7.2141    4.4824   50.3703 H       1  ZINC001120957943    0.0700
     32 H32        -7.6755    2.4251   49.5631 H       1  ZINC001120957943    0.1200
     33 H33        -6.3323    1.4141   48.9782 H       1  ZINC001120957943    0.1000
     34 H34        -8.9764   -1.4031   53.8628 H       1  ZINC001120957943    0.1100
     35 H35        -8.1550   -0.1251   54.7964 H       1  ZINC001120957943    0.1000
     36 H36       -10.5775    0.1697   52.9632 H       1  ZINC001120957943    0.0900
     37 H37       -10.4985    0.4782   54.7151 H       1  ZINC001120957943    0.1000
     38 H38        -9.7646    1.9515   51.3573 H       1  ZINC001120957943    0.1000
     39 H39        -8.5069    3.0682   51.9481 H       1  ZINC001120957943    0.1100
     40 H40        -3.8929    4.3002   51.5583 H       1  ZINC001120957943    0.1700
     41 H41         0.3204    2.6400   50.5640 H       1  ZINC001120957943    0.1500
     42 H42        -0.4424   -0.5684   47.8717 H       1  ZINC001120957943    0.1400
     43 H43        -2.8424   -0.1711   47.9884 H       1  ZINC001120957943    0.1500
@<TRIPOS>BOND
     1     1     2    1
     2     1    29    1
     3     1    30    1
     4     1    31    1
     5     2     3    1
     6     2    18    1
     7     3     4    1
     8     3    32    1
     9     3    33    1
    10     4    17    1
    11     4     5    2
    12     5     6    1
    13     6     7    2
    14     7    17    1
    15     7     8    1
    16     8     9    1
    17     8    34    1
    18     8    35    1
    19     9    10    1
    20     9    36    1
    21     9    37    1
    22    10    11    1
    23    10    12    1
    24    10    16    1
    25    12    13    1
    26    12    14    1
    27    12    15    1
    28    16    17    1
    29    16    38    1
    30    16    39    1
    31    18    28   ar
    32    18    19   ar
    33    19    20   ar
    34    19    40    1
    35    20    21   ar
    36    21    27   ar
    37    21    22   ar
    38    22    23   ar
    39    22    41    1
    40    23    24    1
    41    23    25   ar
    42    25    26   ar
    43    25    42    1
    44    26    27   ar
    45    26    43    1
    46    27    28   ar
@<TRIPOS>SUBSTRUCTURE
     1 ZINC001120957943        1 TEMP              0 ****  ****    0 ROOT


##########                                Name:    ZINC000821442454
##########                DOCK_Rotatable_Bonds:                   6
##########                         Heavy_Atoms:                  26
##########                    Molecular_Weight:             398.873
##########                DOCK_Rotatable_Bonds:                   6
##########                       Formal_Charge:          -0.0399996
##########                     HBond_Acceptors:                  11
##########                        HBond_Donors:                   2
##########                         Heavy_Atoms:                  26
##########                          Grid_Score:          -33.395004
##########                     Grid_vdw_energy:          -31.263498
##########                      Grid_es_energy:           -2.131508
##########           Internal_energy_repulsive:           22.687502

@<TRIPOS>MOLECULE
ZINC000821442454
 45 47 1 0 0
SMALL
USER_CHARGES


@<TRIPOS>ATOM
      1 C1        -15.0318   -4.4919   57.1599 C.3     1  ZINC000821442454   -0.1500
      2 C2        -15.7445   -3.1705   57.4550 C.3     1  ZINC000821442454   -0.6300
      3 S3        -15.5840   -2.7777   59.2187 S.o2    1  ZINC000821442454    2.6000
      4 O4        -16.3687   -1.6402   59.5495 O.2     1  ZINC000821442454   -0.9500
      5 O5        -15.6447   -3.9624   60.0010 O.2     1  ZINC000821442454   -0.9500
      6 N6        -14.0206   -2.2578   59.3855 N.am    1  ZINC000821442454   -1.0000
      7 C7        -13.5060   -1.8422   60.6975 C.3     1  ZINC000821442454    0.1100
      8 C8        -12.9087   -0.4373   60.5704 C.3     1  ZINC000821442454   -0.1300
      9 C9        -11.8620   -0.4313   59.4540 C.3     1  ZINC000821442454   -0.1100
     10 C10       -12.5288   -0.7947   58.1254 C.3     1  ZINC000821442454   -0.1200
     11 H11       -13.3232   -0.0802   57.9095 H       1  ZINC000821442454    0.1100
     12 C12       -11.5039   -0.7562   57.0211 C.2     1  ZINC000821442454    0.5300
     13 O13       -10.7743   -1.7075   56.8375 O.2     1  ZINC000821442454   -0.5100
     14 N14       -11.3981    0.3353   56.2377 N.am    1  ZINC000821442454   -0.6700
     15 C15       -10.4470    0.3711   55.2128 C.ar    1  ZINC000821442454    0.1800
     16 C16       -10.8307    0.1215   53.9012 C.ar    1  ZINC000821442454   -0.1200
     17 C17        -9.8947    0.1568   52.8889 C.ar    1  ZINC000821442454   -0.0500
     18 C18        -8.5629    0.4429   53.1819 C.ar    1  ZINC000821442454   -0.0300
     19 C19        -7.5544    0.4816   52.0936 C.2     1  ZINC000821442454    0.2200
     20 N20        -6.3529   -0.0604   52.1139 N.2     1  ZINC000821442454   -0.2900
     21 N21        -5.7870    0.1928   50.9840 N.pl3   1  ZINC000821442454   -0.2200
     22 N22        -6.5916    0.8777   50.2487 N.2     1  ZINC000821442454   -0.0400
     23 N23        -7.6903    1.0696   50.8965 N.2     1  ZINC000821442454   -0.2700
     24 C24        -8.1789    0.6932   54.4982 C.ar    1  ZINC000821442454   -0.0500
     25 C25        -9.1191    0.6622   55.5073 C.ar    1  ZINC000821442454   -0.0800
     26 Cl26       -8.6423    0.9737   57.1472 Cl      1  ZINC000821442454   -0.0500
     27 C27       -13.1200   -2.2090   58.2257 C.3     1  ZINC000821442454    0.1400
     28 H28       -13.9766   -4.4009   57.4174 H       1  ZINC000821442454    0.0700
     29 H29       -15.4829   -5.2881   57.7522 H       1  ZINC000821442454    0.0700
     30 H30       -15.1283   -4.7280   56.1002 H       1  ZINC000821442454    0.0800
     31 H31       -15.2934   -2.3744   56.8628 H       1  ZINC000821442454    0.1300
     32 H32       -16.7999   -3.2616   57.1976 H       1  ZINC000821442454    0.1300
     33 H33       -14.3202   -1.8291   61.4221 H       1  ZINC000821442454    0.1000
     34 H34       -12.7343   -2.5391   61.0248 H       1  ZINC000821442454    0.0700
     35 H35       -13.6995    0.2739   60.3316 H       1  ZINC000821442454    0.0700
     36 H36       -12.4377   -0.1556   61.5123 H       1  ZINC000821442454    0.0800
     37 H37       -11.4178    0.5612   59.3779 H       1  ZINC000821442454    0.0700
     38 H38       -11.0844   -1.1604   59.6814 H       1  ZINC000821442454    0.0800
     39 H39       -11.9817    1.0961   56.3846 H       1  ZINC000821442454    0.4200
     40 H40       -11.8630   -0.1006   53.6742 H       1  ZINC000821442454    0.1600
     41 H41       -10.1938   -0.0377   51.8696 H       1  ZINC000821442454    0.1500
     42 H42        -4.8947   -0.0884   50.7279 H       1  ZINC000821442454    0.4800
     43 H43        -7.1472    0.9151   54.7274 H       1  ZINC000821442454    0.1500
     44 H44       -12.3153   -2.9335   58.3505 H       1  ZINC000821442454    0.0800
     45 H45       -13.6812   -2.4357   57.3192 H       1  ZINC000821442454    0.1000
@<TRIPOS>BOND
     1     1     2    1
     2     1    28    1
     3     1    29    1
     4     1    30    1
     5     2     3    1
     6     2    31    1
     7     2    32    1
     8     3     4    2
     9     3     5    2
    10     3     6   am
    11     6    27    1
    12     6     7    1
    13     7     8    1
    14     7    33    1
    15     7    34    1
    16     8     9    1
    17     8    35    1
    18     8    36    1
    19     9    10    1
    20     9    37    1
    21     9    38    1
    22    10    11    1
    23    10    12    1
    24    10    27    1
    25    12    13    2
    26    12    14   am
    27    14    15    1
    28    14    39    1
    29    15    25   ar
    30    15    16   ar
    31    16    17   ar
    32    16    40    1
    33    17    18   ar
    34    17    41    1
    35    18    19    1
    36    18    24   ar
    37    19    23    1
    38    19    20    2
    39    20    21    1
    40    21    22    1
    41    21    42    1
    42    22    23    2
    43    24    25   ar
    44    24    43    1
    45    25    26    1
    46    27    44    1
    47    27    45    1
@<TRIPOS>SUBSTRUCTURE
     1 ZINC000821442454        1 TEMP              0 ****  ****    0 ROOT


##########                                Name:    ZINC000002634904
##########                DOCK_Rotatable_Bonds:                   7
##########                         Heavy_Atoms:                  31
##########                    Molecular_Weight:             423.498
##########                DOCK_Rotatable_Bonds:                   7
##########                       Formal_Charge:        -7.45058e-08
##########                     HBond_Acceptors:                   7
##########                        HBond_Donors:                   1
##########                         Heavy_Atoms:                  31
##########                          Grid_Score:          -33.383991
##########                     Grid_vdw_energy:          -31.792978
##########                      Grid_es_energy:           -1.591013
##########           Internal_energy_repulsive:            8.958962

@<TRIPOS>MOLECULE
ZINC000002634904
 48 51 1 0 0
SMALL
USER_CHARGES


@<TRIPOS>ATOM
      1 N1        -10.5770    2.6856   65.7094 N.1     1  ZINC000002634904   -0.4100
      2 C2        -10.2507    2.0107   64.8560 C.1     1  ZINC000002634904    0.2500
      3 C3         -9.8392    1.1598   63.7801 C.ar    1  ZINC000002634904   -0.0400
      4 C4         -8.6521    0.4288   63.8797 C.ar    1  ZINC000002634904   -0.0500
      5 C5         -8.2595   -0.3883   62.8433 C.ar    1  ZINC000002634904   -0.1400
      6 C6         -9.0429   -0.4866   61.6980 C.ar    1  ZINC000002634904    0.1700
      7 N7         -8.6420   -1.3158   60.6496 N.am    1  ZINC000002634904   -0.6700
      8 C8         -9.4836   -2.2543   60.1731 C.2     1  ZINC000002634904    0.5400
      9 O9        -10.5894   -2.3785   60.6555 O.2     1  ZINC000002634904   -0.5000
     10 C10        -9.0506   -3.1498   59.0409 C.3     1  ZINC000002634904   -0.1700
     11 S11       -10.4706   -3.5063   57.9767 S.3     1  ZINC000002634904    0.1300
     12 C12       -10.1920   -2.3335   56.6916 C.ar    1  ZINC000002634904    0.2100
     13 N13       -10.4491   -2.6700   55.4326 N.ar    1  ZINC000002634904   -0.2900
     14 N14       -10.2608   -1.8462   54.4619 N.ar    1  ZINC000002634904   -0.1600
     15 C15        -9.7987   -0.6228   54.6971 C.ar    1  ZINC000002634904    0.0600
     16 C16        -9.5817    0.3272   53.5810 C.ar    1  ZINC000002634904   -0.0500
     17 C17        -8.6318    0.0481   52.5989 C.ar    1  ZINC000002634904   -0.0800
     18 C18        -8.4342    0.9367   51.5618 C.ar    1  ZINC000002634904   -0.1200
     19 C19        -9.1758    2.1027   51.4956 C.ar    1  ZINC000002634904   -0.1000
     20 C20       -10.1194    2.3850   52.4669 C.ar    1  ZINC000002634904   -0.1200
     21 C21       -10.3305    1.5011   53.5054 C.ar    1  ZINC000002634904   -0.0800
     22 C22        -9.5185   -0.2430   56.0252 C.ar    1  ZINC000002634904    0.2300
     23 C23        -9.0018    1.1111   56.3328 C.ar    1  ZINC000002634904   -0.0700
     24 C24        -7.7589    1.5136   55.8452 C.ar    1  ZINC000002634904   -0.0700
     25 C25        -7.2832    2.7761   56.1346 C.ar    1  ZINC000002634904   -0.1200
     26 C26        -8.0366    3.6419   56.9069 C.ar    1  ZINC000002634904   -0.0900
     27 C27        -9.2702    3.2482   57.3939 C.ar    1  ZINC000002634904   -0.1200
     28 C28        -9.7591    1.9903   57.1063 C.ar    1  ZINC000002634904   -0.0700
     29 N29        -9.7337   -1.1262   56.9973 N.ar    1  ZINC000002634904   -0.4400
     30 C30       -10.2252    0.2391   61.5955 C.ar    1  ZINC000002634904   -0.1200
     31 C31       -10.6267    1.0540   62.6302 C.ar    1  ZINC000002634904   -0.0500
     32 H32        -8.0432    0.5051   64.7685 H       1  ZINC000002634904    0.1400
     33 H33        -7.3422   -0.9531   62.9194 H       1  ZINC000002634904    0.1400
     34 H34        -7.7576   -1.2164   60.2637 H       1  ZINC000002634904    0.4200
     35 H35        -8.2763   -2.6503   58.4584 H       1  ZINC000002634904    0.1300
     36 H36        -8.6565   -4.0820   59.4453 H       1  ZINC000002634904    0.1300
     37 H37        -8.0519   -0.8615   52.6500 H       1  ZINC000002634904    0.1300
     38 H38        -7.6990    0.7216   50.8006 H       1  ZINC000002634904    0.1300
     39 H39        -9.0171    2.7954   50.6824 H       1  ZINC000002634904    0.1300
     40 H40       -10.6954    3.2968   52.4099 H       1  ZINC000002634904    0.1300
     41 H41       -11.0677    1.7224   54.2630 H       1  ZINC000002634904    0.1200
     42 H42        -7.1697    0.8383   55.2424 H       1  ZINC000002634904    0.1300
     43 H43        -6.3206    3.0887   55.7578 H       1  ZINC000002634904    0.1300
     44 H44        -7.6601    4.6291   57.1308 H       1  ZINC000002634904    0.1300
     45 H45        -9.8537    3.9284   57.9965 H       1  ZINC000002634904    0.1300
     46 H46       -10.7222    1.6841   57.4871 H       1  ZINC000002634904    0.1300
     47 H47       -10.8310    0.1599   60.7049 H       1  ZINC000002634904    0.1500
     48 H48       -11.5450    1.6169   62.5501 H       1  ZINC000002634904    0.1400
@<TRIPOS>BOND
     1     1     2    3
     2     2     3    1
     3     3    31   ar
     4     3     4   ar
     5     4     5   ar
     6     4    32    1
     7     5     6   ar
     8     5    33    1
     9     6     7    1
    10     6    30   ar
    11     7     8   am
    12     7    34    1
    13     8     9    2
    14     8    10    1
    15    10    11    1
    16    10    35    1
    17    10    36    1
    18    11    12    1
    19    12    29   ar
    20    12    13   ar
    21    13    14   ar
    22    14    15   ar
    23    15    16    1
    24    15    22   ar
    25    16    21   ar
    26    16    17   ar
    27    17    18   ar
    28    17    37    1
    29    18    19   ar
    30    18    38    1
    31    19    20   ar
    32    19    39    1
    33    20    21   ar
    34    20    40    1
    35    21    41    1
    36    22    23    1
    37    22    29   ar
    38    23    28   ar
    39    23    24   ar
    40    24    25   ar
    41    24    42    1
    42    25    26   ar
    43    25    43    1
    44    26    27   ar
    45    26    44    1
    46    27    28   ar
    47    27    45    1
    48    28    46    1
    49    30    31   ar
    50    30    47    1
    51    31    48    1
@<TRIPOS>SUBSTRUCTURE
     1 ZINC000002634904        1 TEMP              0 ****  ****    0 ROOT


##########                                Name:    ZINC000637608314
##########                DOCK_Rotatable_Bonds:                   9
##########                         Heavy_Atoms:                  28
##########                    Molecular_Weight:             387.479
##########                DOCK_Rotatable_Bonds:                   9
##########                       Formal_Charge:           0.0499991
##########                     HBond_Acceptors:                   7
##########                        HBond_Donors:                   2
##########                         Heavy_Atoms:                  28
##########                          Grid_Score:          -33.358925
##########                     Grid_vdw_energy:          -32.205242
##########                      Grid_es_energy:           -1.153684
##########           Internal_energy_repulsive:           13.837638

@<TRIPOS>MOLECULE
ZINC000637608314
 57 59 1 0 0
SMALL
USER_CHARGES


@<TRIPOS>ATOM
      1 C1         -7.5033    1.9889   49.9903 C.3     1  ZINC000637608314   -0.1400
      2 C2         -7.1460    2.0740   51.4756 C.3     1  ZINC000637608314   -0.0400
      3 C3         -5.6748    1.7006   51.6684 C.3     1  ZINC000637608314   -0.1500
      4 C4         -7.3797    3.5010   51.9754 C.3     1  ZINC000637608314   -0.1500
      5 C5         -8.0128    1.1200   52.2563 C.2     1  ZINC000637608314    0.1900
      6 C6         -7.8566    1.0174   53.5968 C.2     1  ZINC000637608314   -0.2400
      7 C7         -8.6598    0.1320   54.3293 C.2     1  ZINC000637608314    0.0200
      8 C8         -9.5929   -0.6180   53.6757 C.2     1  ZINC000637608314   -0.2400
      9 C9        -10.4696   -1.5770   54.4391 C.3     1  ZINC000637608314    0.2100
     10 N10       -10.8005   -1.0023   55.7453 N.am    1  ZINC000637608314   -0.7300
     11 C11       -11.4836   -1.7322   56.6493 C.2     1  ZINC000637608314    0.7100
     12 O12       -11.8264   -2.8672   56.3801 O.2     1  ZINC000637608314   -0.5900
     13 N13       -11.7867   -1.2039   57.8516 N.am    1  ZINC000637608314   -0.6200
     14 C14       -11.3752    0.1643   58.1752 C.3     1  ZINC000637608314    0.2000
     15 C15        -9.9518    0.1571   58.6701 C.2     1  ZINC000637608314   -0.0400
     16 C16        -9.1187    1.2131   58.6849 C.2     1  ZINC000637608314   -0.1900
     17 C17        -7.8936    0.7607   59.2264 C.2     1  ZINC000637608314   -0.2200
     18 C18        -8.0512   -0.5447   59.5102 C.2     1  ZINC000637608314   -0.0300
     19 O19        -9.3017   -0.9034   59.1765 O.3     1  ZINC000637608314   -0.1700
     20 C20       -12.5276   -1.9980   58.8348 C.3     1  ZINC000637608314    0.1300
     21 C21       -14.0169   -1.6591   58.7462 C.3     1  ZINC000637608314    0.0700
     22 H22       -14.1472   -0.5786   58.6862 H       1  ZINC000637608314    0.0900
     23 C23       -14.7535   -2.2074   59.9872 C.3     1  ZINC000637608314   -0.1500
     24 C24       -16.0868   -2.7213   59.3787 C.3     1  ZINC000637608314   -0.1600
     25 C25       -15.6054   -3.2175   57.9922 C.3     1  ZINC000637608314    0.0500
     26 O26       -14.5892   -2.2824   57.5904 O.3     1  ZINC000637608314   -0.3800
     27 C27        -9.7287   -0.4866   52.2831 C.2     1  ZINC000637608314    0.5300
     28 O28       -10.5601   -1.1514   51.6859 O.2     1  ZINC000637608314   -0.5400
     29 N29        -8.9460    0.3767   51.6083 N.am    1  ZINC000637608314   -0.6000
     30 H30        -7.3368    0.9723   49.6342 H       1  ZINC000637608314    0.0700
     31 H31        -8.5514    2.2549   49.8530 H       1  ZINC000637608314    0.0700
     32 H32        -6.8764    2.6790   49.4256 H       1  ZINC000637608314    0.0700
     33 H33        -5.0478    2.3907   51.1037 H       1  ZINC000637608314    0.0700
     34 H34        -5.4202    1.7614   52.7265 H       1  ZINC000637608314    0.0600
     35 H35        -5.5082    0.6840   51.3122 H       1  ZINC000637608314    0.0700
     36 H36        -8.4278    3.7670   51.8381 H       1  ZINC000637608314    0.0700
     37 H37        -7.1251    3.5616   53.0335 H       1  ZINC000637608314    0.0600
     38 H38        -6.7527    4.1911   51.4107 H       1  ZINC000637608314    0.0700
     39 H39        -7.1136    1.6169   54.1018 H       1  ZINC000637608314    0.1500
     40 H40        -8.5405    0.0445   55.3991 H       1  ZINC000637608314    0.1400
     41 H41       -11.3868   -1.7561   53.8780 H       1  ZINC000637608314    0.0800
     42 H42        -9.9402   -2.5194   54.5804 H       1  ZINC000637608314    0.0800
     43 H43       -10.5281   -0.0962   55.9596 H       1  ZINC000637608314    0.4000
     44 H44       -11.4464    0.7860   57.2827 H       1  ZINC000637608314    0.1200
     45 H45       -12.0274    0.5661   58.9507 H       1  ZINC000637608314    0.0900
     46 H46        -9.3426    2.2142   58.3474 H       1  ZINC000637608314    0.1500
     47 H47        -7.0020    1.3500   59.3821 H       1  ZINC000637608314    0.1500
     48 H48        -7.3009   -1.1933   59.9376 H       1  ZINC000637608314    0.2000
     49 H49       -12.3834   -3.0585   58.6282 H       1  ZINC000637608314    0.0800
     50 H50       -12.1619   -1.7699   59.8359 H       1  ZINC000637608314    0.1000
     51 H51       -14.1935   -3.0251   60.4409 H       1  ZINC000637608314    0.0800
     52 H52       -14.9379   -1.4136   60.7110 H       1  ZINC000637608314    0.0900
     53 H53       -16.4976   -3.5409   59.9685 H       1  ZINC000637608314    0.0800
     54 H54       -16.8099   -1.9120   59.2771 H       1  ZINC000637608314    0.0800
     55 H55       -15.1865   -4.2205   58.0738 H       1  ZINC000637608314    0.0600
     56 H56       -16.4302   -3.2080   57.2796 H       1  ZINC000637608314    0.0800
     57 H57        -9.0449    0.4631   50.6472 H       1  ZINC000637608314    0.4100
@<TRIPOS>BOND
     1     1     2    1
     2     1    30    1
     3     1    31    1
     4     1    32    1
     5     2     3    1
     6     2     4    1
     7     2     5    1
     8     3    33    1
     9     3    34    1
    10     3    35    1
    11     4    36    1
    12     4    37    1
    13     4    38    1
    14     5    29    1
    15     5     6    2
    16     6     7    1
    17     6    39    1
    18     7     8    2
    19     7    40    1
    20     8     9    1
    21     8    27    1
    22     9    10    1
    23     9    41    1
    24     9    42    1
    25    10    11   am
    26    10    43    1
    27    11    12    2
    28    11    13   am
    29    13    14    1
    30    13    20    1
    31    14    15    1
    32    14    44    1
    33    14    45    1
    34    15    19    1
    35    15    16    2
    36    16    17    1
    37    16    46    1
    38    17    18    2
    39    17    47    1
    40    18    19    1
    41    18    48    1
    42    20    21    1
    43    20    49    1
    44    20    50    1
    45    21    22    1
    46    21    26    1
    47    21    23    1
    48    23    24    1
    49    23    51    1
    50    23    52    1
    51    24    25    1
    52    24    53    1
    53    24    54    1
    54    25    26    1
    55    25    55    1
    56    25    56    1
    57    27    28    2
    58    27    29   am
    59    29    57    1
@<TRIPOS>SUBSTRUCTURE
     1 ZINC000637608314        1 TEMP              0 ****  ****    0 ROOT


##########                                Name:    ZINC001340305486
##########                DOCK_Rotatable_Bonds:                   8
##########                         Heavy_Atoms:                  27
##########                    Molecular_Weight:             378.431
##########                DOCK_Rotatable_Bonds:                   8
##########                       Formal_Charge:          0.00999955
##########                     HBond_Acceptors:                  10
##########                        HBond_Donors:                   2
##########                         Heavy_Atoms:                  27
##########                          Grid_Score:          -33.309151
##########                     Grid_vdw_energy:          -32.305233
##########                      Grid_es_energy:           -1.003917
##########           Internal_energy_repulsive:            9.951885

@<TRIPOS>MOLECULE
ZINC001340305486
 53 55 1 0 0
SMALL
USER_CHARGES


@<TRIPOS>ATOM
      1 C1         -8.0493    2.2880   60.4397 C.3     1  ZINC001340305486    0.0900
      2 N2         -8.9432    1.1352   60.3043 N.am    1  ZINC001340305486   -0.7300
      3 C3         -8.9202    0.3931   59.1795 C.2     1  ZINC001340305486    0.5200
      4 O4         -8.1605    0.6805   58.2788 O.2     1  ZINC001340305486   -0.5100
      5 C5         -9.8384   -0.7938   59.0410 C.3     1  ZINC001340305486    0.0600
      6 H6         -9.2497   -1.7111   59.0385 H       1  ZINC001340305486    0.0900
      7 C7        -10.6218   -0.6846   57.7279 C.3     1  ZINC001340305486    0.0900
      8 N8        -11.6393   -1.7474   57.7048 N.am    1  ZINC001340305486   -0.5800
      9 C9        -11.7635   -2.5659   56.6413 C.2     1  ZINC001340305486    0.5100
     10 O10       -12.6094   -3.4362   56.6409 O.2     1  ZINC001340305486   -0.5200
     11 C11       -10.8598   -2.4018   55.4623 C.2     1  ZINC001340305486    0.5200
     12 O12       -10.0056   -3.2326   55.2324 O.2     1  ZINC001340305486   -0.5000
     13 N13       -10.9934   -1.3313   54.6546 N.am    1  ZINC001340305486   -0.6900
     14 C14       -10.1063   -1.1696   53.4999 C.3     1  ZINC001340305486    0.1200
     15 C15        -9.8142    0.3168   53.2855 C.3     1  ZINC001340305486   -0.0400
     16 C16        -8.8498    0.4788   52.1388 C.2     1  ZINC001340305486    0.1700
     17 N17        -8.3610   -0.4779   51.3948 N.2     1  ZINC001340305486   -0.2800
     18 N18        -7.5743    0.0220   50.5065 N.2     1  ZINC001340305486   -0.2900
     19 C19        -7.5311    1.3167   50.6420 C.2     1  ZINC001340305486    0.1900
     20 C20        -6.7573    2.2952   49.7972 C.3     1  ZINC001340305486   -0.0400
     21 C21        -6.0256    3.2796   50.7145 C.3     1  ZINC001340305486   -0.1200
     22 C22        -6.9376    4.4624   51.0261 C.3     1  ZINC001340305486   -0.1300
     23 C23        -8.3956    4.0106   51.0942 C.3     1  ZINC001340305486   -0.1400
     24 C24        -8.5667    2.9835   52.2170 C.3     1  ZINC001340305486    0.1000
     25 N25        -8.3326    1.6413   51.6833 N.pl3   1  ZINC001340305486   -0.4600
     26 C26       -12.5176   -1.8897   58.8768 C.3     1  ZINC001340305486    0.0200
     27 C27       -11.6418   -1.9402   60.1340 C.3     1  ZINC001340305486    0.0500
     28 O28       -10.7559   -0.8182   60.1370 O.3     1  ZINC001340305486   -0.3500
     29 H29        -7.0139    1.9557   60.3646 H       1  ZINC001340305486    0.0600
     30 H30        -8.2590    3.0055   59.6464 H       1  ZINC001340305486    0.0600
     31 H31        -8.2098    2.7604   61.4088 H       1  ZINC001340305486    0.0800
     32 H32        -9.5516    0.9061   61.0242 H       1  ZINC001340305486    0.4000
     33 H33       -11.1072    0.2897   57.6700 H       1  ZINC001340305486    0.0900
     34 H34        -9.9429   -0.8078   56.8841 H       1  ZINC001340305486    0.1100
     35 H35       -11.6769   -0.6679   54.8377 H       1  ZINC001340305486    0.4200
     36 H36        -9.1721   -1.7009   53.6823 H       1  ZINC001340305486    0.0900
     37 H37       -10.5885   -1.5770   52.6114 H       1  ZINC001340305486    0.0800
     38 H38       -10.7425    0.8401   53.0563 H       1  ZINC001340305486    0.0900
     39 H39        -9.3753    0.7353   54.1913 H       1  ZINC001340305486    0.1100
     40 H40        -6.0316    1.7565   49.1878 H       1  ZINC001340305486    0.1000
     41 H41        -7.4441    2.8413   49.1504 H       1  ZINC001340305486    0.0900
     42 H42        -5.7530    2.7771   51.6424 H       1  ZINC001340305486    0.0600
     43 H43        -5.1239    3.6376   50.2174 H       1  ZINC001340305486    0.0800
     44 H44        -6.6501    4.8957   51.9841 H       1  ZINC001340305486    0.0700
     45 H45        -6.8303    5.2150   50.2449 H       1  ZINC001340305486    0.0800
     46 H46        -9.0335    4.8725   51.2911 H       1  ZINC001340305486    0.0900
     47 H47        -8.6803    3.5596   50.1437 H       1  ZINC001340305486    0.0800
     48 H48        -7.8516    3.1922   53.0127 H       1  ZINC001340305486    0.0900
     49 H49        -9.5803    3.0435   52.6134 H       1  ZINC001340305486    0.1000
     50 H50       -13.1938   -1.0368   58.9345 H       1  ZINC001340305486    0.0800
     51 H51       -13.0941   -2.8110   58.7937 H       1  ZINC001340305486    0.1700
     52 H52       -12.2751   -1.9065   61.0204 H       1  ZINC001340305486    0.1200
     53 H53       -11.0603   -2.8623   60.1357 H       1  ZINC001340305486    0.0600
@<TRIPOS>BOND
     1     1     2    1
     2     1    29    1
     3     1    30    1
     4     1    31    1
     5     2     3   am
     6     2    32    1
     7     3     4    2
     8     3     5    1
     9     5     6    1
    10     5    28    1
    11     5     7    1
    12     7     8    1
    13     7    33    1
    14     7    34    1
    15     8     9   am
    16     8    26    1
    17     9    10    2
    18     9    11    1
    19    11    12    2
    20    11    13   am
    21    13    14    1
    22    13    35    1
    23    14    15    1
    24    14    36    1
    25    14    37    1
    26    15    16    1
    27    15    38    1
    28    15    39    1
    29    16    25    1
    30    16    17    2
    31    17    18    1
    32    18    19    2
    33    19    25    1
    34    19    20    1
    35    20    21    1
    36    20    40    1
    37    20    41    1
    38    21    22    1
    39    21    42    1
    40    21    43    1
    41    22    23    1
    42    22    44    1
    43    22    45    1
    44    23    24    1
    45    23    46    1
    46    23    47    1
    47    24    25    1
    48    24    48    1
    49    24    49    1
    50    26    27    1
    51    26    50    1
    52    26    51    1
    53    27    28    1
    54    27    52    1
    55    27    53    1
@<TRIPOS>SUBSTRUCTURE
     1 ZINC001340305486        1 TEMP              0 ****  ****    0 ROOT


##########                                Name:    ZINC001220171460
##########                DOCK_Rotatable_Bonds:                  10
##########                         Heavy_Atoms:                  25
##########                    Molecular_Weight:             383.773
##########                DOCK_Rotatable_Bonds:                  10
##########                       Formal_Charge:           0.0199996
##########                     HBond_Acceptors:                  10
##########                        HBond_Donors:                   3
##########                         Heavy_Atoms:                  25
##########                          Grid_Score:          -33.302910
##########                     Grid_vdw_energy:          -29.673010
##########                      Grid_es_energy:           -3.629902
##########           Internal_energy_repulsive:           10.854136

@<TRIPOS>MOLECULE
ZINC001220171460
 43 44 1 0 0
SMALL
USER_CHARGES


@<TRIPOS>ATOM
      1 C1         -7.2968    1.6997   57.9633 C.3     1  ZINC001220171460    0.0200
      2 O2         -8.0097    1.0652   59.0268 O.3     1  ZINC001220171460   -0.3100
      3 C3         -8.6228   -0.1151   58.7414 C.ar    1  ZINC001220171460    0.1000
      4 C4         -9.2892   -0.2772   57.5384 C.ar    1  ZINC001220171460   -0.1500
      5 C5         -9.9127   -1.4782   57.2486 C.ar    1  ZINC001220171460   -0.0600
      6 Cl6       -10.7470   -1.6791   55.7394 Cl      1  ZINC001220171460   -0.0400
      7 C7         -9.8722   -2.5204   58.1602 C.ar    1  ZINC001220171460    0.1000
      8 F8        -10.4818   -3.6913   57.8733 F       1  ZINC001220171460   -0.1200
      9 C9         -9.2076   -2.3640   59.3642 C.ar    1  ZINC001220171460   -0.1200
     10 C10        -8.5764   -1.1643   59.6565 C.ar    1  ZINC001220171460    0.1800
     11 N11        -7.9027   -1.0039   60.8755 N.am    1  ZINC001220171460   -0.6700
     12 C12        -8.5399   -0.4598   61.9311 C.2     1  ZINC001220171460    0.7100
     13 O13        -9.6991   -0.1081   61.8263 O.2     1  ZINC001220171460   -0.5700
     14 N14        -7.8923   -0.3055   63.1030 N.am    1  ZINC001220171460   -0.7400
     15 C15        -8.5844    0.2875   64.2500 C.3     1  ZINC001220171460    0.1400
     16 C16        -7.6572    0.2757   65.4670 C.3     1  ZINC001220171460   -0.1400
     17 C17        -7.9205    1.5177   66.3208 C.3     1  ZINC001220171460    0.0500
     18 H18        -7.9086    2.4039   65.6864 H       1  ZINC001220171460    0.1000
     19 N19        -9.2333    1.3971   66.9689 N.3     1  ZINC001220171460   -0.6500
     20 C20       -10.2638    2.1172   66.2088 C.3     1  ZINC001220171460    0.0100
     21 C21       -11.1441    3.1070   66.9745 C.3     1  ZINC001220171460   -0.2000
     22 C22       -10.0732    3.6223   66.0109 C.3     1  ZINC001220171460   -0.1600
     23 C23        -6.8333    1.6413   67.3902 C.3     1  ZINC001220171460    0.4600
     24 F24        -5.5865    1.7877   66.7729 F       1  ZINC001220171460   -0.1800
     25 F25        -7.0914    2.7593   68.1906 F       1  ZINC001220171460   -0.1800
     26 F26        -6.8279    0.4900   68.1850 F       1  ZINC001220171460   -0.1700
     27 H27        -6.5068    1.0373   57.6094 H       1  ZINC001220171460    0.0600
     28 H28        -7.9829    1.9166   57.1445 H       1  ZINC001220171460    0.0600
     29 H29        -6.8569    2.6293   58.3245 H       1  ZINC001220171460    0.1100
     30 H30        -9.3225    0.5340   56.8261 H       1  ZINC001220171460    0.1500
     31 H31        -9.1771   -3.1774   60.0741 H       1  ZINC001220171460    0.1800
     32 H32        -6.9779   -1.2845   60.9592 H       1  ZINC001220171460    0.4200
     33 H33        -6.9678   -0.5873   63.1870 H       1  ZINC001220171460    0.4000
     34 H34        -8.8624    1.3149   64.0150 H       1  ZINC001220171460    0.0800
     35 H35        -9.4818   -0.2902   64.4712 H       1  ZINC001220171460    0.0700
     36 H36        -7.8469   -0.6193   66.0595 H       1  ZINC001220171460    0.1000
     37 H37        -6.6196    0.2774   65.1333 H       1  ZINC001220171460    0.1000
     38 H38        -9.4872    0.4287   67.0942 H       1  ZINC001220171460    0.3600
     39 H39       -10.7256    1.5571   65.3956 H       1  ZINC001220171460    0.1200
     40 H40       -12.1852    3.1982   66.6652 H       1  ZINC001220171460    0.1000
     41 H41       -10.9585    3.2239   68.0423 H       1  ZINC001220171460    0.1000
     42 H42        -9.1832    4.0782   66.4447 H       1  ZINC001220171460    0.1000
     43 H43       -10.4099    4.0525   65.0677 H       1  ZINC001220171460    0.1000
@<TRIPOS>BOND
     1     1     2    1
     2     1    27    1
     3     1    28    1
     4     1    29    1
     5     2     3    1
     6     3    10   ar
     7     3     4   ar
     8     4     5   ar
     9     4    30    1
    10     5     6    1
    11     5     7   ar
    12     7     8    1
    13     7     9   ar
    14     9    10   ar
    15     9    31    1
    16    10    11    1
    17    11    12   am
    18    11    32    1
    19    12    13    2
    20    12    14   am
    21    14    15    1
    22    14    33    1
    23    15    16    1
    24    15    34    1
    25    15    35    1
    26    16    17    1
    27    16    36    1
    28    16    37    1
    29    17    18    1
    30    17    19    1
    31    17    23    1
    32    19    20    1
    33    19    38    1
    34    20    22    1
    35    20    21    1
    36    20    39    1
    37    21    22    1
    38    21    40    1
    39    21    41    1
    40    22    42    1
    41    22    43    1
    42    23    24    1
    43    23    25    1
    44    23    26    1
@<TRIPOS>SUBSTRUCTURE
     1 ZINC001220171460        1 TEMP              0 ****  ****    0 ROOT


##########                                Name:    ZINC000963156778
##########                DOCK_Rotatable_Bonds:                   6
##########                         Heavy_Atoms:                  24
##########                    Molecular_Weight:             349.414
##########                DOCK_Rotatable_Bonds:                   6
##########                       Formal_Charge:         -0.00999984
##########                     HBond_Acceptors:                   9
##########                        HBond_Donors:                   2
##########                         Heavy_Atoms:                  24
##########                          Grid_Score:          -33.283592
##########                     Grid_vdw_energy:          -29.853682
##########                      Grid_es_energy:           -3.429910
##########           Internal_energy_repulsive:           10.916998

@<TRIPOS>MOLECULE
ZINC000963156778
 43 46 1 0 0
SMALL
USER_CHARGES


@<TRIPOS>ATOM
      1 C1        -14.1158   -4.8048   56.7201 C.3     1  ZINC000963156778   -0.0800
      2 C2        -14.4895   -3.3662   56.9690 C.2     1  ZINC000963156778    0.0300
      3 C3        -13.5892   -2.3595   57.0561 C.2     1  ZINC000963156778   -0.2600
      4 C4        -12.0898   -2.4441   56.9300 C.3     1  ZINC000963156778    0.1300
      5 N5        -11.5018   -2.7103   58.2497 N.3     1  ZINC000963156778   -0.5000
      6 C6        -11.7451   -1.5775   59.1793 C.3     1  ZINC000963156778    0.0600
      7 C7        -10.6658   -1.7325   60.2722 C.3     1  ZINC000963156778   -0.1700
      8 H8        -11.0017   -1.9468   61.2868 H       1  ZINC000963156778    0.1200
      9 C9         -9.5320   -2.5374   59.6045 C.3     1  ZINC000963156778   -0.1700
     10 H10        -9.0140   -3.3416   60.1271 H       1  ZINC000963156778    0.1200
     11 C11       -10.0215   -2.8010   58.1643 C.3     1  ZINC000963156778    0.0600
     12 C12        -9.3147   -1.0487   60.0539 C.3     1  ZINC000963156778    0.1200
     13 H13        -9.2500   -0.2923   59.2718 H       1  ZINC000963156778    0.1400
     14 N14        -8.4728   -0.8143   61.2297 N.am    1  ZINC000963156778   -0.7000
     15 C15        -8.9504   -0.1017   62.2692 C.2     1  ZINC000963156778    0.5100
     16 O16       -10.0776    0.3442   62.2318 O.2     1  ZINC000963156778   -0.5000
     17 C17        -8.0837    0.1409   63.4780 C.3     1  ZINC000963156778   -0.1300
     18 C18        -8.9336    0.7321   64.6045 C.3     1  ZINC000963156778   -0.1100
     19 H19        -9.9716    0.4135   64.5080 H       1  ZINC000963156778    0.1300
     20 C20        -8.8363    2.2713   64.6072 C.3     1  ZINC000963156778   -0.1600
     21 C21        -8.2337    2.5861   65.9590 C.2     1  ZINC000963156778    0.5300
     22 O22        -7.9850    3.6972   66.3754 O.2     1  ZINC000963156778   -0.4800
     23 N23        -8.0190    1.4432   66.6224 N.am    1  ZINC000963156778   -0.6900
     24 C24        -8.3783    0.3356   65.9549 C.2     1  ZINC000963156778    0.5200
     25 O25        -8.2715   -0.7990   66.3684 O.2     1  ZINC000963156778   -0.4500
     26 S26       -14.5492   -0.9600   57.3429 S.3     1  ZINC000963156778    0.4500
     27 N27       -15.9258   -1.7047   57.3317 N.2     1  ZINC000963156778   -0.2900
     28 N28       -15.7293   -2.9474   57.1204 N.2     1  ZINC000963156778   -0.2400
     29 H29       -14.0969   -4.9949   55.6470 H       1  ZINC000963156778    0.0900
     30 H30       -13.1301   -5.0023   57.1414 H       1  ZINC000963156778    0.0800
     31 H31       -14.8501   -5.4578   57.1919 H       1  ZINC000963156778    0.0800
     32 H32       -11.8276   -3.2511   56.2458 H       1  ZINC000963156778    0.1000
     33 H33       -11.7039   -1.5007   56.5439 H       1  ZINC000963156778    0.0700
     34 H34       -11.6260   -0.6268   58.6595 H       1  ZINC000963156778    0.0600
     35 H35       -12.7412   -1.6509   59.6156 H       1  ZINC000963156778    0.0800
     36 H36        -9.7198   -3.7958   57.8364 H       1  ZINC000963156778    0.1000
     37 H37        -9.6326   -2.0419   57.4857 H       1  ZINC000963156778    0.0500
     38 H38        -7.5717   -1.1719   61.2600 H       1  ZINC000963156778    0.4000
     39 H39        -7.6483   -0.8022   63.8080 H       1  ZINC000963156778    0.1000
     40 H40        -7.2869    0.8383   63.2196 H       1  ZINC000963156778    0.1200
     41 H41        -8.1823    2.6158   63.8061 H       1  ZINC000963156778    0.1200
     42 H42        -9.8261    2.7185   64.5149 H       1  ZINC000963156778    0.1300
     43 H43        -7.6364    1.4174   67.5134 H       1  ZINC000963156778    0.4200
@<TRIPOS>BOND
     1     1     2    1
     2     1    29    1
     3     1    30    1
     4     1    31    1
     5     2    28    1
     6     2     3    2
     7     3     4    1
     8     3    26    1
     9     4     5    1
    10     4    32    1
    11     4    33    1
    12     5    11    1
    13     5     6    1
    14     6     7    1
    15     6    34    1
    16     6    35    1
    17     7     8    1
    18     7    12    1
    19     7     9    1
    20     9    10    1
    21     9    11    1
    22     9    12    1
    23    11    36    1
    24    11    37    1
    25    12    13    1
    26    12    14    1
    27    14    15   am
    28    14    38    1
    29    15    16    2
    30    15    17    1
    31    17    18    1
    32    17    39    1
    33    17    40    1
    34    18    19    1
    35    18    24    1
    36    18    20    1
    37    20    21    1
    38    20    41    1
    39    20    42    1
    40    21    22    2
    41    21    23   am
    42    23    24   am
    43    23    43    1
    44    24    25    2
    45    26    27    1
    46    27    28    2
@<TRIPOS>SUBSTRUCTURE
     1 ZINC000963156778        1 TEMP              0 ****  ****    0 ROOT


##########                                Name:    ZINC000051488227
##########                DOCK_Rotatable_Bonds:                   8
##########                         Heavy_Atoms:                  30
##########                    Molecular_Weight:             403.478
##########                DOCK_Rotatable_Bonds:                   8
##########                       Formal_Charge:           0.0199996
##########                     HBond_Acceptors:                   5
##########                        HBond_Donors:                   0
##########                         Heavy_Atoms:                  30
##########                          Grid_Score:          -33.251030
##########                     Grid_vdw_energy:          -32.478447
##########                      Grid_es_energy:           -0.772583
##########           Internal_energy_repulsive:           23.350821

@<TRIPOS>MOLECULE
ZINC000051488227
 55 58 1 0 0
SMALL
USER_CHARGES


@<TRIPOS>ATOM
      1 O1        -10.3489   -2.0411   54.0819 O.2     1  ZINC000051488227   -0.5000
      2 C2        -10.3214   -0.9295   54.5547 C.2     1  ZINC000051488227    0.4800
      3 O3        -10.2945   -0.7672   55.8869 O.3     1  ZINC000051488227   -0.3400
      4 C4        -10.3397   -1.9704   56.6985 C.3     1  ZINC000051488227    0.1100
      5 C5        -10.1267   -1.6082   58.1458 C.ar    1  ZINC000051488227   -0.1400
      6 C6         -9.4190   -0.4669   58.4747 C.ar    1  ZINC000051488227   -0.0500
      7 C7         -9.2223   -0.1328   59.8006 C.ar    1  ZINC000051488227   -0.1500
      8 C8         -9.7361   -0.9434   60.8025 C.ar    1  ZINC000051488227    0.1500
      9 O9         -9.5445   -0.6165   62.1077 O.3     1  ZINC000051488227   -0.3100
     10 C10        -8.7916    0.5681   62.3760 C.3     1  ZINC000051488227    0.1100
     11 C11        -8.4900    0.6484   63.8504 C.ar    1  ZINC000051488227    0.1200
     12 C12        -7.3211    0.0969   64.3392 C.ar    1  ZINC000051488227   -0.1500
     13 C13        -7.0528    0.1766   65.6974 C.ar    1  ZINC000051488227   -0.0700
     14 C14        -7.9745    0.8109   66.5159 C.ar    1  ZINC000051488227   -0.1700
     15 C15        -9.1223    1.3389   65.9550 C.ar    1  ZINC000051488227    0.1100
     16 N16        -9.3420    1.2490   64.6581 N.ar    1  ZINC000051488227   -0.4800
     17 C17       -10.4463   -2.0877   60.4698 C.ar    1  ZINC000051488227   -0.2100
     18 C18       -10.6443   -2.4148   59.1424 C.ar    1  ZINC000051488227   -0.0500
     19 C19       -10.3108    0.2746   53.6486 C.3     1  ZINC000051488227    0.0000
     20 C20       -11.7230    0.7524   53.4287 C.ar    1  ZINC000051488227   -0.0900
     21 C21       -12.7756    0.1076   54.0510 C.ar    1  ZINC000051488227   -0.1100
     22 C22       -14.0710    0.5460   53.8494 C.ar    1  ZINC000051488227   -0.1200
     23 C23       -14.3139    1.6293   53.0259 C.ar    1  ZINC000051488227   -0.1100
     24 C24       -13.2612    2.2746   52.4043 C.ar    1  ZINC000051488227   -0.1200
     25 C25       -11.9654    1.8391   52.6093 C.ar    1  ZINC000051488227   -0.1000
     26 C26        -9.4840    1.3924   54.2914 C.3     1  ZINC000051488227   -0.1400
     27 C27        -8.0340    0.9239   54.4388 C.3     1  ZINC000051488227    0.0600
     28 O28        -7.5196    0.5601   53.1562 O.3     1  ZINC000051488227   -0.3800
     29 C29        -8.2243   -0.5127   52.5278 C.3     1  ZINC000051488227    0.0500
     30 C30        -9.6819   -0.1017   52.3036 C.3     1  ZINC000051488227   -0.1400
     31 H31       -11.3115   -2.4503   56.5832 H       1  ZINC000051488227    0.0800
     32 H32        -9.5555   -2.6556   56.3763 H       1  ZINC000051488227    0.0800
     33 H33        -9.0191    0.1637   57.6943 H       1  ZINC000051488227    0.1300
     34 H34        -8.6689    0.7584   60.0571 H       1  ZINC000051488227    0.1400
     35 H35        -7.8575    0.5398   61.8149 H       1  ZINC000051488227    0.0900
     36 H36        -9.3698    1.4418   62.0752 H       1  ZINC000051488227    0.0900
     37 H37        -6.6255   -0.3904   63.6721 H       1  ZINC000051488227    0.1400
     38 H38        -6.1475   -0.2456   66.1077 H       1  ZINC000051488227    0.1400
     39 H39        -7.7983    0.8910   67.5785 H       1  ZINC000051488227    0.1400
     40 H40        -9.8455    1.8343   66.5859 H       1  ZINC000051488227    0.1600
     41 H41       -10.8470   -2.7204   61.2479 H       1  ZINC000051488227    0.1300
     42 H42       -11.1974   -3.3054   58.8828 H       1  ZINC000051488227    0.1300
     43 H43       -12.5859   -0.7388   54.6944 H       1  ZINC000051488227    0.1300
     44 H44       -14.8934    0.0417   54.3349 H       1  ZINC000051488227    0.1300
     45 H45       -15.3261    1.9713   52.8677 H       1  ZINC000051488227    0.1200
     46 H46       -13.4510    3.1209   51.7606 H       1  ZINC000051488227    0.1200
     47 H47       -11.1430    2.3433   52.1237 H       1  ZINC000051488227    0.1300
     48 H48        -9.5175    2.2799   53.6594 H       1  ZINC000051488227    0.0900
     49 H49        -9.8922    1.6284   55.2742 H       1  ZINC000051488227    0.0900
     50 H50        -7.4319    1.7307   54.8564 H       1  ZINC000051488227    0.1000
     51 H51        -7.9968    0.0607   55.1036 H       1  ZINC000051488227    0.0500
     52 H52        -7.7593   -0.7405   51.5687 H       1  ZINC000051488227    0.1000
     53 H53        -8.1895   -1.3945   53.1674 H       1  ZINC000051488227    0.0700
     54 H54       -10.2317   -0.9342   51.8647 H       1  ZINC000051488227    0.0900
     55 H55        -9.7194    0.7556   51.6314 H       1  ZINC000051488227    0.0900
@<TRIPOS>BOND
     1     1     2    2
     2     2     3    1
     3     2    19    1
     4     3     4    1
     5     4     5    1
     6     4    31    1
     7     4    32    1
     8     5    18   ar
     9     5     6   ar
    10     6     7   ar
    11     6    33    1
    12     7     8   ar
    13     7    34    1
    14     8     9    1
    15     8    17   ar
    16     9    10    1
    17    10    11    1
    18    10    35    1
    19    10    36    1
    20    11    16   ar
    21    11    12   ar
    22    12    13   ar
    23    12    37    1
    24    13    14   ar
    25    13    38    1
    26    14    15   ar
    27    14    39    1
    28    15    16   ar
    29    15    40    1
    30    17    18   ar
    31    17    41    1
    32    18    42    1
    33    19    30    1
    34    19    20    1
    35    19    26    1
    36    20    25   ar
    37    20    21   ar
    38    21    22   ar
    39    21    43    1
    40    22    23   ar
    41    22    44    1
    42    23    24   ar
    43    23    45    1
    44    24    25   ar
    45    24    46    1
    46    25    47    1
    47    26    27    1
    48    26    48    1
    49    26    49    1
    50    27    28    1
    51    27    50    1
    52    27    51    1
    53    28    29    1
    54    29    30    1
    55    29    52    1
    56    29    53    1
    57    30    54    1
    58    30    55    1
@<TRIPOS>SUBSTRUCTURE
     1 ZINC000051488227        1 TEMP              0 ****  ****    0 ROOT


##########                                Name:    ZINC000175255939
##########                DOCK_Rotatable_Bonds:                   8
##########                         Heavy_Atoms:                  28
##########                    Molecular_Weight:             394.375
##########                DOCK_Rotatable_Bonds:                   8
##########                       Formal_Charge:          -0.0399999
##########                     HBond_Acceptors:                   9
##########                        HBond_Donors:                   1
##########                         Heavy_Atoms:                  28
##########                          Grid_Score:          -33.247990
##########                     Grid_vdw_energy:          -33.675171
##########                      Grid_es_energy:            0.427182
##########           Internal_energy_repulsive:            6.009774

@<TRIPOS>MOLECULE
ZINC000175255939
 48 50 1 0 0
SMALL
USER_CHARGES


@<TRIPOS>ATOM
      1 C1        -10.7249   -2.3482   57.5453 C.3     1  ZINC000175255939    0.0300
      2 O2        -10.7807   -1.4950   56.3717 O.3     1  ZINC000175255939   -0.3600
      3 C3        -10.6303   -2.0902   55.1780 C.2     1  ZINC000175255939    0.4600
      4 O4        -10.4568   -3.2843   55.1158 O.2     1  ZINC000175255939   -0.5000
      5 C5        -10.6779   -1.2690   53.9153 C.3     1  ZINC000175255939   -0.0800
      6 H6        -10.9769   -1.9030   53.0806 H       1  ZINC000175255939    0.1100
      7 C7        -11.6908   -0.1345   54.0826 C.3     1  ZINC000175255939   -0.1200
      8 C8        -11.7390    0.6992   52.8006 C.3     1  ZINC000175255939   -0.1100
      9 C9        -10.3546    1.2884   52.5231 C.3     1  ZINC000175255939   -0.1200
     10 C10        -9.3417    0.1540   52.3557 C.3     1  ZINC000175255939   -0.1000
     11 H11        -9.6408   -0.4799   51.5210 H       1  ZINC000175255939    0.1100
     12 C12        -7.9781    0.7344   52.0823 C.2     1  ZINC000175255939    0.5100
     13 O13        -7.1087    0.6633   52.9249 O.2     1  ZINC000175255939   -0.4800
     14 N14        -7.7247    1.3324   50.9014 N.am    1  ZINC000175255939   -0.6300
     15 C15        -6.4695    1.8683   50.6503 C.2     1  ZINC000175255939    0.2100
     16 C16        -5.3061    1.1778   50.4848 C.2     1  ZINC000175255939   -0.2600
     17 C17        -4.3387    2.1908   50.2572 C.2     1  ZINC000175255939    0.0900
     18 C18        -2.8878    1.9979   50.0130 C.ar    1  ZINC000175255939   -0.0500
     19 C19        -1.9598    2.8463   50.6142 C.ar    1  ZINC000175255939   -0.0600
     20 C20        -0.6122    2.6647   50.3855 C.ar    1  ZINC000175255939   -0.1300
     21 C21        -0.1795    1.6381   49.5567 C.ar    1  ZINC000175255939    0.1200
     22 O22         1.1487    1.4616   49.3332 O.3     1  ZINC000175255939   -0.3200
     23 C23         1.6681    1.9468   48.0935 C.3     1  ZINC000175255939    0.4100
     24 F24         1.8249    3.3352   48.1652 F       1  ZINC000175255939   -0.2000
     25 F25         2.9081    1.3498   47.8418 F       1  ZINC000175255939   -0.2000
     26 C26        -1.1018    0.7914   48.9565 C.ar    1  ZINC000175255939   -0.1900
     27 C27        -2.4503    0.9644   49.1866 C.ar    1  ZINC000175255939   -0.0500
     28 N28        -4.9837    3.3319   50.3061 N.2     1  ZINC000175255939   -0.3600
     29 O29        -6.1629    3.1686   50.5168 O.3     1  ZINC000175255939    0.1200
     30 C30        -9.2934   -0.6797   53.6377 C.3     1  ZINC000175255939   -0.0900
     31 H31       -10.8602   -1.7426   58.4415 H       1  ZINC000175255939    0.1000
     32 H32       -11.5161   -3.0958   57.4891 H       1  ZINC000175255939    0.0600
     33 H33        -9.7564   -2.8466   57.5865 H       1  ZINC000175255939    0.0600
     34 H34       -12.6770   -0.5544   54.2803 H       1  ZINC000175255939    0.0800
     35 H35       -11.3916    0.4994   54.9173 H       1  ZINC000175255939    0.0700
     36 H36       -12.0382    0.0653   51.9659 H       1  ZINC000175255939    0.0700
     37 H37       -12.4607    1.5073   52.9198 H       1  ZINC000175255939    0.0800
     38 H38       -10.3890    1.8824   51.6098 H       1  ZINC000175255939    0.0700
     39 H39       -10.0556    1.9224   53.3577 H       1  ZINC000175255939    0.0800
     40 H40        -8.4196    1.3882   50.2270 H       1  ZINC000175255939    0.4300
     41 H41        -5.1556    0.1089   50.5190 H       1  ZINC000175255939    0.1800
     42 H42        -2.2959    3.6454   51.2584 H       1  ZINC000175255939    0.1400
     43 H43         0.1073    3.3219   50.8511 H       1  ZINC000175255939    0.1400
     44 H44         0.9760    1.7004   47.2882 H       1  ZINC000175255939    0.1900
     45 H45        -0.7624   -0.0062   48.3123 H       1  ZINC000175255939    0.1400
     46 H46        -3.1671    0.3053   48.7197 H       1  ZINC000175255939    0.1400
     47 H47        -8.9943   -0.0458   54.4724 H       1  ZINC000175255939    0.0900
     48 H48        -8.5718   -1.4880   53.5185 H       1  ZINC000175255939    0.0800
@<TRIPOS>BOND
     1     1     2    1
     2     1    31    1
     3     1    32    1
     4     1    33    1
     5     2     3    1
     6     3     4    2
     7     3     5    1
     8     5     6    1
     9     5    30    1
    10     5     7    1
    11     7     8    1
    12     7    34    1
    13     7    35    1
    14     8     9    1
    15     8    36    1
    16     8    37    1
    17     9    10    1
    18     9    38    1
    19     9    39    1
    20    10    11    1
    21    10    12    1
    22    10    30    1
    23    12    13    2
    24    12    14   am
    25    14    15    1
    26    14    40    1
    27    15    29    1
    28    15    16    2
    29    16    17    1
    30    16    41    1
    31    17    18    1
    32    17    28    2
    33    18    27   ar
    34    18    19   ar
    35    19    20   ar
    36    19    42    1
    37    20    21   ar
    38    20    43    1
    39    21    22    1
    40    21    26   ar
    41    22    23    1
    42    23    24    1
    43    23    25    1
    44    23    44    1
    45    26    27   ar
    46    26    45    1
    47    27    46    1
    48    28    29    1
    49    30    47    1
    50    30    48    1
@<TRIPOS>SUBSTRUCTURE
     1 ZINC000175255939        1 TEMP              0 ****  ****    0 ROOT


##########                                Name:    ZINC000509132103
##########                DOCK_Rotatable_Bonds:                   7
##########                         Heavy_Atoms:                  29
##########                    Molecular_Weight:              405.52
##########                DOCK_Rotatable_Bonds:                   7
##########                       Formal_Charge:          -0.0499998
##########                     HBond_Acceptors:                   6
##########                        HBond_Donors:                   0
##########                         Heavy_Atoms:                  29
##########                          Grid_Score:          -33.244846
##########                     Grid_vdw_energy:          -33.082722
##########                      Grid_es_energy:           -0.162124
##########           Internal_energy_repulsive:           16.307276

@<TRIPOS>MOLECULE
ZINC000509132103
 52 55 1 0 0
SMALL
USER_CHARGES


@<TRIPOS>ATOM
      1 C1         -0.3319    3.6940   52.1561 C.3     1  ZINC000509132103    0.0300
      2 O2         -1.5827    4.1224   52.6984 O.3     1  ZINC000509132103   -0.3000
      3 C3         -2.7030    3.7594   52.0242 C.ar    1  ZINC000509132103    0.2700
      4 C4         -3.9556    4.1554   52.4855 C.ar    1  ZINC000509132103   -0.1300
      5 C5         -5.0696    3.7588   51.7611 C.ar    1  ZINC000509132103   -0.0700
      6 C6         -4.8678    2.9926   50.6224 C.ar    1  ZINC000509132103    0.0500
      7 C7         -6.0466    2.5376   49.8013 C.3     1  ZINC000509132103   -0.0500
      8 S8         -7.4481    2.1863   50.8982 S.3     1  ZINC000509132103   -0.1500
      9 C9         -7.0678    0.5281   51.5278 C.3     1  ZINC000509132103   -0.1300
     10 C10        -8.3166   -0.0897   52.1022 C.2     1  ZINC000509132103    0.5400
     11 O11        -8.8841   -0.9787   51.5034 O.2     1  ZINC000509132103   -0.5100
     12 N12        -8.8029    0.3458   53.2814 N.am    1  ZINC000509132103   -0.6100
     13 C13        -8.1401    1.4190   54.0302 C.3     1  ZINC000509132103    0.1500
     14 C14        -8.0657    1.0485   55.4901 C.ar    1  ZINC000509132103   -0.1000
     15 C15        -7.2616    1.8229   56.3146 C.ar    1  ZINC000509132103   -0.1100
     16 C16        -7.1608    1.5397   57.6615 C.ar    1  ZINC000509132103   -0.1200
     17 C17        -7.8674    0.4774   58.1931 C.ar    1  ZINC000509132103   -0.1200
     18 C18        -8.6639   -0.2955   57.3739 C.ar    1  ZINC000509132103   -0.1100
     19 C19        -8.7626   -0.0165   56.0164 C.ar    1  ZINC000509132103   -0.0600
     20 C20        -9.6297   -0.9194   55.1791 C.3     1  ZINC000509132103   -0.0200
     21 H21        -9.0831   -1.8358   54.9566 H       1  ZINC000509132103    0.1000
     22 C22       -10.8784   -1.2620   55.9502 C.ar    1  ZINC000509132103   -0.0800
     23 C23       -11.6588   -0.2541   56.4848 C.ar    1  ZINC000509132103   -0.1100
     24 C24       -12.8042   -0.5683   57.1921 C.ar    1  ZINC000509132103   -0.1200
     25 C25       -13.1694   -1.8904   57.3644 C.ar    1  ZINC000509132103   -0.1200
     26 C26       -12.3893   -2.8982   56.8290 C.ar    1  ZINC000509132103   -0.1200
     27 C27       -11.2462   -2.5839   56.1180 C.ar    1  ZINC000509132103   -0.1100
     28 C28       -10.0239   -0.2325   53.8664 C.3     1  ZINC000509132103    0.1200
     29 N29        -3.6441    2.6631   50.2586 N.ar    1  ZINC000509132103   -0.1900
     30 N30        -2.6093    3.0321   50.9223 N.ar    1  ZINC000509132103   -0.3000
     31 H31        -0.2134    4.0997   51.1514 H       1  ZINC000509132103    0.0600
     32 H32         0.4801    4.0505   52.7899 H       1  ZINC000509132103    0.1000
     33 H33        -0.3082    2.6051   52.1134 H       1  ZINC000509132103    0.0600
     34 H34        -4.0564    4.7524   53.3798 H       1  ZINC000509132103    0.1600
     35 H35        -6.0648    4.0378   52.0743 H       1  ZINC000509132103    0.1600
     36 H36        -6.3239    3.3224   49.0976 H       1  ZINC000509132103    0.1100
     37 H37        -5.7799    1.6347   49.2520 H       1  ZINC000509132103    0.1000
     38 H38        -6.6965   -0.0935   50.7132 H       1  ZINC000509132103    0.1100
     39 H39        -6.3074    0.6003   52.3055 H       1  ZINC000509132103    0.1100
     40 H40        -7.1323    1.5640   53.6409 H       1  ZINC000509132103    0.1000
     41 H41        -8.7076    2.3429   53.9188 H       1  ZINC000509132103    0.0900
     42 H42        -6.7102    2.6533   55.8988 H       1  ZINC000509132103    0.1200
     43 H43        -6.5327    2.1458   58.2975 H       1  ZINC000509132103    0.1300
     44 H44        -7.7958    0.2528   59.2470 H       1  ZINC000509132103    0.1200
     45 H45        -9.2154   -1.1250   57.7912 H       1  ZINC000509132103    0.1200
     46 H46       -11.3736    0.7789   56.3503 H       1  ZINC000509132103    0.1200
     47 H47       -13.4137    0.2191   57.6105 H       1  ZINC000509132103    0.1200
     48 H48       -14.0638   -2.1360   57.9176 H       1  ZINC000509132103    0.1200
     49 H49       -12.6744   -3.9312   56.9638 H       1  ZINC000509132103    0.1200
     50 H50       -10.6368   -3.3713   55.6997 H       1  ZINC000509132103    0.1200
     51 H51       -10.7516    0.5542   54.0659 H       1  ZINC000509132103    0.0800
     52 H52       -10.4501   -0.9646   53.1805 H       1  ZINC000509132103    0.1000
@<TRIPOS>BOND
     1     1     2    1
     2     1    31    1
     3     1    32    1
     4     1    33    1
     5     2     3    1
     6     3    30   ar
     7     3     4   ar
     8     4     5   ar
     9     4    34    1
    10     5     6   ar
    11     5    35    1
    12     6     7    1
    13     6    29   ar
    14     7     8    1
    15     7    36    1
    16     7    37    1
    17     8     9    1
    18     9    10    1
    19     9    38    1
    20     9    39    1
    21    10    11    2
    22    10    12   am
    23    12    28    1
    24    12    13    1
    25    13    14    1
    26    13    40    1
    27    13    41    1
    28    14    19   ar
    29    14    15   ar
    30    15    16   ar
    31    15    42    1
    32    16    17   ar
    33    16    43    1
    34    17    18   ar
    35    17    44    1
    36    18    19   ar
    37    18    45    1
    38    19    20    1
    39    20    21    1
    40    20    22    1
    41    20    28    1
    42    22    27   ar
    43    22    23   ar
    44    23    24   ar
    45    23    46    1
    46    24    25   ar
    47    24    47    1
    48    25    26   ar
    49    25    48    1
    50    26    27   ar
    51    26    49    1
    52    27    50    1
    53    28    51    1
    54    28    52    1
    55    29    30   ar
@<TRIPOS>SUBSTRUCTURE
     1 ZINC000509132103        1 TEMP              0 ****  ****    0 ROOT


##########                                Name:    ZINC001169875900
##########                DOCK_Rotatable_Bonds:                   9
##########                         Heavy_Atoms:                  24
##########                    Molecular_Weight:             329.399
##########                DOCK_Rotatable_Bonds:                   9
##########                       Formal_Charge:          -0.0500002
##########                     HBond_Acceptors:                   6
##########                        HBond_Donors:                   1
##########                         Heavy_Atoms:                  24
##########                          Grid_Score:          -33.232792
##########                     Grid_vdw_energy:          -33.781078
##########                      Grid_es_energy:            0.548286
##########           Internal_energy_repulsive:            6.344348

@<TRIPOS>MOLECULE
ZINC001169875900
 47 48 1 0 0
SMALL
USER_CHARGES


@<TRIPOS>ATOM
      1 C1        -10.3809   -2.4236   57.2737 C.3     1  ZINC001169875900   -0.1500
      2 C2        -10.9910   -1.6906   56.0773 C.3     1  ZINC001169875900   -0.1300
      3 C3         -9.9461   -1.5700   54.9661 C.3     1  ZINC001169875900    0.0700
      4 O4        -10.4353   -0.6985   53.9448 O.3     1  ZINC001169875900   -0.3100
      5 C5         -9.5378   -0.2643   53.0231 C.ar    1  ZINC001169875900    0.2700
      6 N6         -8.4073   -0.9271   52.8494 N.ar    1  ZINC001169875900   -0.5000
      7 C7         -7.5033   -0.5389   51.9699 C.ar    1  ZINC001169875900    0.0600
      8 C8         -7.7142    0.5855   51.1862 C.ar    1  ZINC001169875900    0.1400
      9 N9         -6.7508    0.9920   50.2555 N.pl3   1  ZINC001169875900   -0.7400
     10 C10        -6.4751    2.4177   50.0620 C.3     1  ZINC001169875900    0.1800
     11 C11        -5.0287    2.6973   50.3801 C.ar    1  ZINC001169875900    0.1000
     12 C12        -4.7104    3.6631   51.3215 C.ar    1  ZINC001169875900   -0.1200
     13 C13        -3.3787    3.9171   51.6111 C.ar    1  ZINC001169875900   -0.0800
     14 C14        -2.4066    3.1898   50.9429 C.ar    1  ZINC001169875900   -0.1000
     15 C15        -2.7994    2.2337   50.0083 C.ar    1  ZINC001169875900    0.0900
     16 C16        -1.7731    1.4482   49.2858 C.2     1  ZINC001169875900    0.5200
     17 O17        -2.1102    0.5906   48.4950 O.2     1  ZINC001169875900   -0.5000
     18 O18        -0.4656    1.6850   49.5056 O.3     1  ZINC001169875900   -0.3300
     19 C19         0.4822    0.9970   48.6475 C.3     1  ZINC001169875900    0.0600
     20 C20         1.9078    1.3619   49.0667 C.3     1  ZINC001169875900   -0.1500
     21 N21        -4.0863    2.0177   49.7644 N.ar    1  ZINC001169875900   -0.4200
     22 C22        -8.8976    1.3062   51.3376 C.ar    1  ZINC001169875900   -0.1200
     23 C23        -9.8209    0.8678   52.2699 C.ar    1  ZINC001169875900   -0.1000
     24 C24       -11.1153    1.6131   52.4703 C.3     1  ZINC001169875900   -0.1000
     25 H25        -9.5211   -1.8644   57.6425 H       1  ZINC001169875900    0.0600
     26 H26       -11.1253   -2.5094   58.0653 H       1  ZINC001169875900    0.0600
     27 H27       -10.0617   -3.4192   56.9656 H       1  ZINC001169875900    0.0600
     28 H28       -11.3102   -0.6949   56.3854 H       1  ZINC001169875900    0.0700
     29 H29       -11.8508   -2.2498   55.7084 H       1  ZINC001169875900    0.0700
     30 H30        -9.7524   -2.5550   54.5411 H       1  ZINC001169875900    0.0600
     31 H31        -9.0224   -1.1642   55.3784 H       1  ZINC001169875900    0.0600
     32 H32        -6.5890   -1.1030   51.8594 H       1  ZINC001169875900    0.1500
     33 H33        -6.2659    0.3297   49.7389 H       1  ZINC001169875900    0.4000
     34 H34        -6.6784    2.6899   49.0263 H       1  ZINC001169875900    0.0800
     35 H35        -7.1125    3.0042   50.7237 H       1  ZINC001169875900    0.0800
     36 H36        -5.4923    4.2128   51.8245 H       1  ZINC001169875900    0.1500
     37 H37        -3.1052    4.6646   52.3411 H       1  ZINC001169875900    0.1500
     38 H38        -1.3593    3.3618   51.1434 H       1  ZINC001169875900    0.1500
     39 H39         0.3408   -0.0798   48.7398 H       1  ZINC001169875900    0.0700
     40 H40         0.3198    1.2974   47.6124 H       1  ZINC001169875900    0.0700
     41 H41         2.0492    2.4387   48.9744 H       1  ZINC001169875900    0.0700
     42 H42         2.0702    1.0614   50.1018 H       1  ZINC001169875900    0.0700
     43 H43         2.6194    0.8453   48.4225 H       1  ZINC001169875900    0.0800
     44 H44        -9.0892    2.1861   50.7414 H       1  ZINC001169875900    0.1400
     45 H45       -11.8747    1.2088   51.8011 H       1  ZINC001169875900    0.0700
     46 H46       -10.9636    2.6701   52.2514 H       1  ZINC001169875900    0.0700
     47 H47       -11.4438    1.4996   53.5035 H       1  ZINC001169875900    0.0700
@<TRIPOS>BOND
     1     1     2    1
     2     1    25    1
     3     1    26    1
     4     1    27    1
     5     2     3    1
     6     2    28    1
     7     2    29    1
     8     3     4    1
     9     3    30    1
    10     3    31    1
    11     4     5    1
    12     5    23   ar
    13     5     6   ar
    14     6     7   ar
    15     7     8   ar
    16     7    32    1
    17     8     9    1
    18     8    22   ar
    19     9    10    1
    20     9    33    1
    21    10    11    1
    22    10    34    1
    23    10    35    1
    24    11    21   ar
    25    11    12   ar
    26    12    13   ar
    27    12    36    1
    28    13    14   ar
    29    13    37    1
    30    14    15   ar
    31    14    38    1
    32    15    16    1
    33    15    21   ar
    34    16    17    2
    35    16    18    1
    36    18    19    1
    37    19    20    1
    38    19    39    1
    39    19    40    1
    40    20    41    1
    41    20    42    1
    42    20    43    1
    43    22    23   ar
    44    22    44    1
    45    23    24    1
    46    24    45    1
    47    24    46    1
    48    24    47    1
@<TRIPOS>SUBSTRUCTURE
     1 ZINC001169875900        1 TEMP              0 ****  ****    0 ROOT


##########                                Name:    ZINC000492313853
##########                DOCK_Rotatable_Bonds:                   8
##########                         Heavy_Atoms:                  30
##########                    Molecular_Weight:             418.422
##########                DOCK_Rotatable_Bonds:                   8
##########                       Formal_Charge:          -0.0100008
##########                     HBond_Acceptors:                  10
##########                        HBond_Donors:                   2
##########                         Heavy_Atoms:                  30
##########                          Grid_Score:          -33.226688
##########                     Grid_vdw_energy:          -32.462009
##########                      Grid_es_energy:           -0.764681
##########           Internal_energy_repulsive:           16.727409

@<TRIPOS>MOLECULE
ZINC000492313853
 51 53 1 0 0
SMALL
USER_CHARGES


@<TRIPOS>ATOM
      1 C1        -10.3095    2.0850   66.5326 C.3     1  ZINC000492313853    0.0900
      2 N2         -9.2091    1.1663   66.2302 N.pl3   1  ZINC000492313853   -0.6200
      3 C3         -8.3331    0.6937   67.3050 C.3     1  ZINC000492313853    0.1000
      4 C4         -8.9962    0.7430   64.9233 C.ar    1  ZINC000492313853    0.4100
      5 C5         -9.8275    1.2011   63.9065 C.ar    1  ZINC000492313853   -0.2400
      6 C6         -9.6041    0.7721   62.6104 C.ar    1  ZINC000492313853   -0.0100
      7 C7         -8.5530   -0.1036   62.3741 C.ar    1  ZINC000492313853   -0.2300
      8 C8         -8.2721   -0.5966   60.9780 C.3     1  ZINC000492313853    0.2000
      9 N9         -9.1307    0.1139   60.0272 N.am    1  ZINC000492313853   -0.7300
     10 C10        -8.9409   -0.0410   58.7019 C.2     1  ZINC000492313853    0.7100
     11 O11        -8.0581   -0.7716   58.2953 O.2     1  ZINC000492313853   -0.5600
     12 N12        -9.7298    0.6140   57.8271 N.am    1  ZINC000492313853   -0.6600
     13 C13        -9.5324    0.4550   56.4552 C.2     1  ZINC000492313853    0.3300
     14 C14        -8.4219    0.8128   55.7585 C.2     1  ZINC000492313853   -0.2600
     15 C15        -8.6354    0.4792   54.4080 C.2     1  ZINC000492313853    0.1200
     16 C16        -7.6776    0.6966   53.2954 C.ar    1  ZINC000492313853   -0.0100
     17 C17        -7.2642   -0.3765   52.5091 C.ar    1  ZINC000492313853   -0.0600
     18 C18        -6.3735   -0.1686   51.4752 C.ar    1  ZINC000492313853   -0.1200
     19 C19        -5.8917    1.1022   51.2193 C.ar    1  ZINC000492313853   -0.0700
     20 C20        -6.2988    2.1715   51.9969 C.ar    1  ZINC000492313853   -0.1900
     21 C21        -5.7699    3.5534   51.7118 C.3     1  ZINC000492313853    0.5100
     22 F22        -4.8356    3.9065   52.6916 F       1  ZINC000492313853   -0.1800
     23 F23        -5.1555    3.5675   50.4551 F       1  ZINC000492313853   -0.1800
     24 F24        -6.8273    4.4693   51.7244 F       1  ZINC000492313853   -0.1800
     25 C25        -7.1929    1.9758   53.0298 C.ar    1  ZINC000492313853   -0.0400
     26 N26        -9.8319   -0.0589   54.3030 N.2     1  ZINC000492313853   -0.2700
     27 N27       -10.4135   -0.0908   55.5766 N.pl3   1  ZINC000492313853   -0.3900
     28 C28       -11.7430   -0.6124   55.9030 C.3     1  ZINC000492313853    0.1000
     29 C29        -7.7672   -0.5177   63.4312 C.ar    1  ZINC000492313853    0.1700
     30 N30        -8.0005   -0.0883   64.6568 N.ar    1  ZINC000492313853   -0.5400
     31 H31        -9.9574    3.1133   66.4501 H       1  ZINC000492313853    0.0600
     32 H32       -11.1235    1.9219   65.8262 H       1  ZINC000492313853    0.0700
     33 H33       -10.6663    1.9033   67.5464 H       1  ZINC000492313853    0.0700
     34 H34        -8.6523    1.1292   68.2520 H       1  ZINC000492313853    0.0700
     35 H35        -8.3888   -0.3931   67.3679 H       1  ZINC000492313853    0.0600
     36 H36        -7.3063    0.9933   67.0952 H       1  ZINC000492313853    0.0600
     37 H37       -10.6366    1.8819   64.1259 H       1  ZINC000492313853    0.1300
     38 H38       -10.2334    1.1105   61.8006 H       1  ZINC000492313853    0.1400
     39 H39        -7.2264   -0.4125   60.7312 H       1  ZINC000492313853    0.0800
     40 H40        -8.4755   -1.6660   60.9226 H       1  ZINC000492313853    0.0800
     41 H41        -9.8357    0.6959   60.3515 H       1  ZINC000492313853    0.4000
     42 H42       -10.4349    1.1958   58.1514 H       1  ZINC000492313853    0.4100
     43 H43        -7.5342    1.2718   56.1680 H       1  ZINC000492313853    0.1800
     44 H44        -7.6396   -1.3694   52.7083 H       1  ZINC000492313853    0.1400
     45 H45        -6.0522   -0.9999   50.8652 H       1  ZINC000492313853    0.1400
     46 H46        -5.1947    1.2605   50.4096 H       1  ZINC000492313853    0.1400
     47 H47        -7.5102    2.8112   53.6363 H       1  ZINC000492313853    0.1400
     48 H48       -11.6680   -1.6725   56.1450 H       1  ZINC000492313853    0.0800
     49 H49       -12.1452   -0.0717   56.7597 H       1  ZINC000492313853    0.0800
     50 H50       -12.4049   -0.4811   55.0470 H       1  ZINC000492313853    0.1000
     51 H51        -6.9484   -1.1989   63.2519 H       1  ZINC000492313853    0.1600
@<TRIPOS>BOND
     1     1     2    1
     2     1    31    1
     3     1    32    1
     4     1    33    1
     5     2     3    1
     6     2     4    1
     7     3    34    1
     8     3    35    1
     9     3    36    1
    10     4    30   ar
    11     4     5   ar
    12     5     6   ar
    13     5    37    1
    14     6     7   ar
    15     6    38    1
    16     7     8    1
    17     7    29   ar
    18     8     9    1
    19     8    39    1
    20     8    40    1
    21     9    10   am
    22     9    41    1
    23    10    11    2
    24    10    12   am
    25    12    13    1
    26    12    42    1
    27    13    27    1
    28    13    14    2
    29    14    15    1
    30    14    43    1
    31    15    16    1
    32    15    26    2
    33    16    25   ar
    34    16    17   ar
    35    17    18   ar
    36    17    44    1
    37    18    19   ar
    38    18    45    1
    39    19    20   ar
    40    19    46    1
    41    20    21    1
    42    20    25   ar
    43    21    22    1
    44    21    23    1
    45    21    24    1
    46    25    47    1
    47    26    27    1
    48    27    28    1
    49    28    48    1
    50    28    49    1
    51    28    50    1
    52    29    30   ar
    53    29    51    1
@<TRIPOS>SUBSTRUCTURE
     1 ZINC000492313853        1 TEMP              0 ****  ****    0 ROOT


##########                                Name:    ZINC000859608860
##########                DOCK_Rotatable_Bonds:                   8
##########                         Heavy_Atoms:                  24
##########                    Molecular_Weight:             394.268
##########                DOCK_Rotatable_Bonds:                   8
##########                       Formal_Charge:          -0.0200003
##########                     HBond_Acceptors:                   6
##########                        HBond_Donors:                   1
##########                         Heavy_Atoms:                  24
##########                          Grid_Score:          -33.192707
##########                     Grid_vdw_energy:          -32.730305
##########                      Grid_es_energy:           -0.462401
##########           Internal_energy_repulsive:           10.983335

@<TRIPOS>MOLECULE
ZINC000859608860
 44 45 1 0 0
SMALL
USER_CHARGES


@<TRIPOS>ATOM
      1 C1        -11.0861    1.2177   62.2222 C.3     1  ZINC000859608860   -0.1400
      2 C2         -9.5670    1.3767   62.1322 C.3     1  ZINC000859608860   -0.0800
      3 C3         -9.1940    1.9450   60.7616 C.3     1  ZINC000859608860   -0.1400
      4 C4         -9.0886    2.3317   63.2277 C.3     1  ZINC000859608860   -0.1400
      5 C5         -8.8996    0.0125   62.3176 C.3     1  ZINC000859608860    0.1300
      6 N6         -9.3893   -0.9138   61.2937 N.am    1  ZINC000859608860   -0.7300
      7 C7         -8.6461   -1.1599   60.1967 C.2     1  ZINC000859608860    0.5100
      8 O8         -7.5726   -0.6134   60.0563 O.2     1  ZINC000859608860   -0.5100
      9 C9         -9.1490   -2.1142   59.1443 C.3     1  ZINC000859608860    0.0500
     10 O10        -9.8282   -1.3687   58.0997 O.3     1  ZINC000859608860   -0.3100
     11 C11       -10.3188   -2.0766   57.0628 C.2     1  ZINC000859608860    0.5600
     12 O12       -10.9681   -3.0836   57.2674 O.2     1  ZINC000859608860   -0.5100
     13 C13       -10.0684   -1.6304   55.6831 C.2     1  ZINC000859608860   -0.0400
     14 C14        -8.9876   -0.9176   55.2498 C.2     1  ZINC000859608860    0.0500
     15 N15        -9.1568   -0.7214   53.9139 N.pl3   1  ZINC000859608860   -0.4100
     16 C16        -8.2820   -0.0342   53.0601 C.ar    1  ZINC000859608860    0.1400
     17 C17        -8.2581   -0.3307   51.7040 C.ar    1  ZINC000859608860   -0.1200
     18 C18        -7.3960    0.3479   50.8651 C.ar    1  ZINC000859608860   -0.0600
     19 C19        -6.5566    1.3224   51.3751 C.ar    1  ZINC000859608860   -0.1000
     20 Br20       -5.3774    2.2493   50.2235 Br      1  ZINC000859608860   -0.0300
     21 C21        -6.5788    1.6200   52.7260 C.ar    1  ZINC000859608860   -0.0600
     22 C22        -7.4425    0.9477   53.5684 C.ar    1  ZINC000859608860   -0.1200
     23 C23       -10.3294   -1.3133   53.5566 C.2     1  ZINC000859608860    0.2000
     24 N24       -10.8675   -1.8580   54.6091 N.2     1  ZINC000859608860   -0.4300
     25 H25       -11.4271    0.5374   61.4418 H       1  ZINC000859608860    0.0500
     26 H26       -11.3518    0.8129   63.1987 H       1  ZINC000859608860    0.0600
     27 H27       -11.5616    2.1896   62.0902 H       1  ZINC000859608860    0.0600
     28 H28        -9.6695    2.9169   60.6296 H       1  ZINC000859608860    0.0600
     29 H29        -8.1118    2.0584   60.6975 H       1  ZINC000859608860    0.0600
     30 H30        -9.5350    1.2647   59.9811 H       1  ZINC000859608860    0.0500
     31 H31        -9.3542    1.9267   64.2042 H       1  ZINC000859608860    0.0600
     32 H32        -8.0063    2.4449   63.1636 H       1  ZINC000859608860    0.0600
     33 H33        -9.5641    3.3036   63.0957 H       1  ZINC000859608860    0.0600
     34 H34        -7.8191    0.1208   62.2227 H       1  ZINC000859608860    0.0700
     35 H35        -9.1402   -0.3784   63.3062 H       1  ZINC000859608860    0.0700
     36 H36       -10.2484   -1.3500   61.4053 H       1  ZINC000859608860    0.4000
     37 H37        -8.3075   -2.6575   58.7144 H       1  ZINC000859608860    0.1000
     38 H38        -9.8445   -2.8209   59.5972 H       1  ZINC000859608860    0.1000
     39 H39        -8.1584   -0.5752   55.8512 H       1  ZINC000859608860    0.2000
     40 H40        -8.9129   -1.0915   51.3056 H       1  ZINC000859608860    0.1400
     41 H41        -7.3769    0.1172   49.8102 H       1  ZINC000859608860    0.1500
     42 H42        -5.9226    2.3811   53.1218 H       1  ZINC000859608860    0.1500
     43 H43        -7.4594    1.1804   54.6229 H       1  ZINC000859608860    0.1500
     44 H44       -10.7444   -1.3314   52.5597 H       1  ZINC000859608860    0.2200
@<TRIPOS>BOND
     1     1     2    1
     2     1    25    1
     3     1    26    1
     4     1    27    1
     5     2     3    1
     6     2     4    1
     7     2     5    1
     8     3    28    1
     9     3    29    1
    10     3    30    1
    11     4    31    1
    12     4    32    1
    13     4    33    1
    14     5     6    1
    15     5    34    1
    16     5    35    1
    17     6     7   am
    18     6    36    1
    19     7     8    2
    20     7     9    1
    21     9    10    1
    22     9    37    1
    23     9    38    1
    24    10    11    1
    25    11    12    2
    26    11    13    1
    27    13    24    1
    28    13    14    2
    29    14    15    1
    30    14    39    1
    31    15    16    1
    32    15    23    1
    33    16    22   ar
    34    16    17   ar
    35    17    18   ar
    36    17    40    1
    37    18    19   ar
    38    18    41    1
    39    19    20    1
    40    19    21   ar
    41    21    22   ar
    42    21    42    1
    43    22    43    1
    44    23    24    2
    45    23    44    1
@<TRIPOS>SUBSTRUCTURE
     1 ZINC000859608860        1 TEMP              0 ****  ****    0 ROOT


##########                                Name:    ZINC001579482641
##########                DOCK_Rotatable_Bonds:                   5
##########                         Heavy_Atoms:                  26
##########                    Molecular_Weight:             355.359
##########                DOCK_Rotatable_Bonds:                   5
##########                       Formal_Charge:                0.05
##########                     HBond_Acceptors:                  11
##########                        HBond_Donors:                   1
##########                         Heavy_Atoms:                  26
##########                          Grid_Score:          -33.144363
##########                     Grid_vdw_energy:          -33.208870
##########                      Grid_es_energy:            0.064506
##########           Internal_energy_repulsive:           17.569271

@<TRIPOS>MOLECULE
ZINC001579482641
 43 46 1 0 0
SMALL
USER_CHARGES


@<TRIPOS>ATOM
      1 C1         -7.4904    3.0403   50.3777 C.3     1  ZINC001579482641    0.0300
      2 O2         -6.0866    2.6881   50.2600 O.3     1  ZINC001579482641   -0.3300
      3 C3         -5.1939    3.5483   50.7872 C.2     1  ZINC001579482641    0.5300
      4 O4         -5.5771    4.5704   51.3206 O.2     1  ZINC001579482641   -0.4900
      5 C5         -3.7489    3.2488   50.7168 C.ar    1  ZINC001579482641    0.0900
      6 C6         -2.8459    4.0391   51.4299 C.ar    1  ZINC001579482641   -0.0800
      7 C7         -1.4942    3.7546   51.3607 C.ar    1  ZINC001579482641   -0.1200
      8 C8         -1.0799    2.6813   50.5756 C.ar    1  ZINC001579482641    0.1100
      9 N9          0.2671    2.3600   50.4778 N.3     1  ZINC001579482641   -0.4600
     10 C10         1.0542    3.5134   49.9715 C.3     1  ZINC001579482641    0.0400
     11 C11         2.4995    3.1804   50.4196 C.3     1  ZINC001579482641   -0.1100
     12 C12         2.2906    2.5342   51.8084 C.3     1  ZINC001579482641   -0.0100
     13 H13         2.4369    3.2737   52.5956 H       1  ZINC001579482641    0.0900
     14 C14         3.2389    1.3780   51.9952 C.2     1  ZINC001579482641    0.1800
     15 N15         3.0111    0.1320   51.6801 N.2     1  ZINC001579482641   -0.2600
     16 N16         4.0373   -0.5840   51.9763 N.2     1  ZINC001579482641   -0.2900
     17 C17         4.9664    0.1726   52.4940 C.2     1  ZINC001579482641    0.1500
     18 N18         4.4881    1.4401   52.5161 N.pl3   1  ZINC001579482641   -0.4800
     19 C19         5.1783    2.6340   53.0107 C.3     1  ZINC001579482641    0.0700
     20 C20         0.8329    2.0377   51.8058 C.3     1  ZINC001579482641    0.0600
     21 C21        -2.0438    1.9279   49.8842 C.ar    1  ZINC001579482641    0.2300
     22 C22        -1.6175    0.7819   49.0440 C.2     1  ZINC001579482641    0.2100
     23 N23        -2.4037   -0.0567   48.3983 N.2     1  ZINC001579482641   -0.2600
     24 N24        -1.6543   -0.9077   47.7860 N.pl3   1  ZINC001579482641   -0.2300
     25 N25        -0.4187   -0.6355   48.0231 N.2     1  ZINC001579482641   -0.0500
     26 N26        -0.3575    0.4007   48.7889 N.2     1  ZINC001579482641   -0.2000
     27 N27        -3.3263    2.2279   49.9801 N.ar    1  ZINC001579482641   -0.4000
     28 H28        -7.6695    3.9917   49.8769 H       1  ZINC001579482641    0.0700
     29 H29        -8.0998    2.2649   49.9133 H       1  ZINC001579482641    0.1100
     30 H30        -7.7557    3.1286   51.4312 H       1  ZINC001579482641    0.0700
     31 H31        -3.1993    4.8649   52.0297 H       1  ZINC001579482641    0.1600
     32 H32        -0.7759    4.3516   51.9030 H       1  ZINC001579482641    0.1600
     33 H33         0.9926    3.5738   48.8848 H       1  ZINC001579482641    0.1000
     34 H34         0.7136    4.4421   50.4293 H       1  ZINC001579482641    0.0600
     35 H35         2.9636    2.4741   49.7313 H       1  ZINC001579482641    0.1000
     36 H36         3.0964    4.0887   50.5026 H       1  ZINC001579482641    0.0800
     37 H37         5.9379   -0.1510   52.8374 H       1  ZINC001579482641    0.2200
     38 H38         5.7390    3.0931   52.1965 H       1  ZINC001579482641    0.0800
     39 H39         4.4458    3.3448   53.3934 H       1  ZINC001579482641    0.0900
     40 H40         5.8635    2.3525   53.8103 H       1  ZINC001579482641    0.0900
     41 H41         0.2657    2.5472   52.5847 H       1  ZINC001579482641    0.0600
     42 H42         0.8073    0.9603   51.9687 H       1  ZINC001579482641    0.1000
     43 H43        -1.9715   -1.6392   47.2334 H       1  ZINC001579482641    0.4800
@<TRIPOS>BOND
     1     1     2    1
     2     1    28    1
     3     1    29    1
     4     1    30    1
     5     2     3    1
     6     3     4    2
     7     3     5    1
     8     5    27   ar
     9     5     6   ar
    10     6     7   ar
    11     6    31    1
    12     7     8   ar
    13     7    32    1
    14     8     9    1
    15     8    21   ar
    16     9    20    1
    17     9    10    1
    18    10    11    1
    19    10    33    1
    20    10    34    1
    21    11    12    1
    22    11    35    1
    23    11    36    1
    24    12    13    1
    25    12    14    1
    26    12    20    1
    27    14    18    1
    28    14    15    2
    29    15    16    1
    30    16    17    2
    31    17    18    1
    32    17    37    1
    33    18    19    1
    34    19    38    1
    35    19    39    1
    36    19    40    1
    37    20    41    1
    38    20    42    1
    39    21    22    1
    40    21    27   ar
    41    22    26    1
    42    22    23    2
    43    23    24    1
    44    24    25    1
    45    24    43    1
    46    25    26    2
@<TRIPOS>SUBSTRUCTURE
     1 ZINC001579482641        1 TEMP              0 ****  ****    0 ROOT


##########                                Name:    ZINC000751548479
##########                DOCK_Rotatable_Bonds:                   9
##########                         Heavy_Atoms:                  27
##########                    Molecular_Weight:             389.407
##########                DOCK_Rotatable_Bonds:                   9
##########                       Formal_Charge:           0.0199995
##########                     HBond_Acceptors:                   9
##########                        HBond_Donors:                   2
##########                         Heavy_Atoms:                  27
##########                          Grid_Score:          -33.118511
##########                     Grid_vdw_energy:          -32.148914
##########                      Grid_es_energy:           -0.969598
##########           Internal_energy_repulsive:           14.395793

@<TRIPOS>MOLECULE
ZINC000751548479
 43 44 1 0 0
SMALL
USER_CHARGES


@<TRIPOS>ATOM
      1 C1         -6.6161    1.5773   50.7968 C.3     1  ZINC000751548479   -0.1600
      2 C2         -7.3360    0.2378   50.9665 C.3     1  ZINC000751548479    0.0800
      3 O3         -8.4608    0.4039   51.8695 O.3     1  ZINC000751548479   -0.3600
      4 C4         -8.1972    0.3573   53.1892 C.2     1  ZINC000751548479    0.6500
      5 O5         -7.0731    0.1054   53.5757 O.2     1  ZINC000751548479   -0.5400
      6 N6         -9.1803    0.5898   54.0813 N.am    1  ZINC000751548479   -0.6500
      7 C7         -8.9070    0.5414   55.4499 C.ar    1  ZINC000751548479    0.2000
      8 C8         -8.2515    1.5976   56.0660 C.ar    1  ZINC000751548479   -0.1000
      9 C9         -7.9806    1.5513   57.4188 C.ar    1  ZINC000751548479   -0.1000
     10 C10        -8.3618    0.4476   58.1742 C.ar    1  ZINC000751548479    0.1300
     11 N11        -8.0824    0.4098   59.5449 N.am    1  ZINC000751548479   -1.0500
     12 S12        -9.2395    0.8649   60.6387 S.o2    1  ZINC000751548479    2.6800
     13 O13        -9.4508    2.2565   60.4436 O.2     1  ZINC000751548479   -0.9500
     14 O14       -10.2791   -0.0993   60.5476 O.2     1  ZINC000751548479   -0.9400
     15 C15        -8.5367    0.6887   62.2450 C.2     1  ZINC000751548479   -0.7500
     16 C16        -9.1234    1.2543   63.2908 C.2     1  ZINC000751548479    0.0700
     17 C17        -8.5350    1.1050   64.6383 C.ar    1  ZINC000751548479   -0.1100
     18 C18        -7.3893    0.3291   64.8201 C.ar    1  ZINC000751548479   -0.0600
     19 C19        -6.8440    0.1934   66.0797 C.ar    1  ZINC000751548479   -0.1600
     20 C20        -7.4319    0.8255   67.1637 C.ar    1  ZINC000751548479    0.1200
     21 F21        -6.8940    0.6891   68.3954 F       1  ZINC000751548479   -0.1300
     22 C22        -8.5692    1.5975   66.9886 C.ar    1  ZINC000751548479   -0.1600
     23 C23        -9.1197    1.7441   65.7324 C.ar    1  ZINC000751548479   -0.0500
     24 C24        -9.0177   -0.6139   57.5736 C.ar    1  ZINC000751548479   -0.0600
     25 C25        -9.2997   -0.5726   56.2066 C.ar    1  ZINC000751548479   -0.0300
     26 C26        -9.9779   -1.6662   55.5784 C.1     1  ZINC000751548479    0.2500
     27 N27       -10.5160   -2.5338   55.0801 N.1     1  ZINC000751548479   -0.4000
     28 H28        -6.2560    1.9215   51.7662 H       1  ZINC000751548479    0.0700
     29 H29        -5.7718    1.4526   50.1189 H       1  ZINC000751548479    0.0900
     30 H30        -7.3078    2.3118   50.3843 H       1  ZINC000751548479    0.0700
     31 H31        -7.6961   -0.1064   49.9970 H       1  ZINC000751548479    0.0800
     32 H32        -6.6444   -0.4967   51.3789 H       1  ZINC000751548479    0.0800
     33 H33       -10.0776    0.7908   53.7728 H       1  ZINC000751548479    0.4200
     34 H34        -7.9521    2.4578   55.4857 H       1  ZINC000751548479    0.1600
     35 H35        -7.4697    2.3763   57.8930 H       1  ZINC000751548479    0.1700
     36 H36        -7.2109    0.1172   59.8543 H       1  ZINC000751548479    0.4300
     37 H37        -7.6282    0.1202   62.3774 H       1  ZINC000751548479    0.1700
     38 H38       -10.0312    1.8240   63.1580 H       1  ZINC000751548479    0.1500
     39 H39        -6.9308   -0.1645   63.9760 H       1  ZINC000751548479    0.1400
     40 H40        -5.9574   -0.4068   66.2214 H       1  ZINC000751548479    0.1400
     41 H41        -9.0234    2.0884   67.8367 H       1  ZINC000751548479    0.1400
     42 H42       -10.0059    2.3462   65.5970 H       1  ZINC000751548479    0.1400
     43 H43        -9.3130   -1.4703   58.1616 H       1  ZINC000751548479    0.1500
@<TRIPOS>BOND
     1     1     2    1
     2     1    28    1
     3     1    29    1
     4     1    30    1
     5     2     3    1
     6     2    31    1
     7     2    32    1
     8     3     4    1
     9     4     5    2
    10     4     6   am
    11     6     7    1
    12     6    33    1
    13     7    25   ar
    14     7     8   ar
    15     8     9   ar
    16     8    34    1
    17     9    10   ar
    18     9    35    1
    19    10    11    1
    20    10    24   ar
    21    11    12   am
    22    11    36    1
    23    12    13    2
    24    12    14    2
    25    12    15    1
    26    15    16    2
    27    15    37    1
    28    16    17    1
    29    16    38    1
    30    17    23   ar
    31    17    18   ar
    32    18    19   ar
    33    18    39    1
    34    19    20   ar
    35    19    40    1
    36    20    21    1
    37    20    22   ar
    38    22    23   ar
    39    22    41    1
    40    23    42    1
    41    24    25   ar
    42    24    43    1
    43    25    26    1
    44    26    27    3
@<TRIPOS>SUBSTRUCTURE
     1 ZINC000751548479        1 TEMP              0 ****  ****    0 ROOT


##########                                Name:    ZINC000642096826
##########                DOCK_Rotatable_Bonds:                  12
##########                         Heavy_Atoms:                  25
##########                    Molecular_Weight:             345.485
##########                DOCK_Rotatable_Bonds:                  12
##########                       Formal_Charge:          0.00999919
##########                     HBond_Acceptors:                   5
##########                        HBond_Donors:                   1
##########                         Heavy_Atoms:                  25
##########                          Grid_Score:          -33.103989
##########                     Grid_vdw_energy:          -32.423901
##########                      Grid_es_energy:           -0.680088
##########           Internal_energy_repulsive:           19.471849

@<TRIPOS>MOLECULE
ZINC000642096826
 56 57 1 0 0
SMALL
USER_CHARGES


@<TRIPOS>ATOM
      1 C1         -8.6927    0.8487   63.8552 C.3     1  ZINC000642096826   -0.1500
      2 C2         -8.4296   -0.3041   62.8841 C.3     1  ZINC000642096826   -0.1400
      3 C3         -8.3588    0.2387   61.4554 C.3     1  ZINC000642096826    0.1200
      4 N4         -9.5521   -0.1784   60.7150 N.am    1  ZINC000642096826   -0.6200
      5 C5        -10.8826    0.2036   61.1947 C.3     1  ZINC000642096826    0.1100
      6 C6        -11.3680    1.4344   60.4263 C.3     1  ZINC000642096826   -0.1400
      7 C7        -10.9253    2.7014   61.1607 C.3     1  ZINC000642096826   -0.1500
      8 C8         -9.4259   -0.9134   59.5924 C.2     1  ZINC000642096826    0.5200
      9 O9         -8.3246   -1.2309   59.1961 O.2     1  ZINC000642096826   -0.5200
     10 C10       -10.6534   -1.3410   58.8297 C.3     1  ZINC000642096826    0.0400
     11 N11       -10.2630   -1.7953   57.4884 N.3     1  ZINC000642096826   -0.5200
     12 C12       -10.4305   -3.2487   57.3555 C.3     1  ZINC000642096826    0.0100
     13 C13       -11.0180   -1.0812   56.4502 C.3     1  ZINC000642096826    0.0900
     14 C14       -10.1005   -0.7467   55.3024 C.ar    1  ZINC000642096826   -0.0500
     15 C15        -8.9311   -0.0456   55.5372 C.ar    1  ZINC000642096826   -0.1000
     16 C16        -8.0871    0.2643   54.4909 C.ar    1  ZINC000642096826   -0.0600
     17 C17        -8.4149   -0.1316   53.1931 C.ar    1  ZINC000642096826   -0.1400
     18 C18        -7.5149    0.1967   52.0671 C.2     1  ZINC000642096826    0.5600
     19 O19        -7.5368   -0.4765   51.0553 O.2     1  ZINC000642096826   -0.5300
     20 N20        -6.6701    1.2425   52.1625 N.am    1  ZINC000642096826   -0.7000
     21 C21        -5.7770    1.5668   51.0473 C.3     1  ZINC000642096826    0.0800
     22 C22        -6.3802    2.3055   49.8509 C.3     1  ZINC000642096826   -0.1900
     23 C23        -5.4463    3.0422   50.8132 C.3     1  ZINC000642096826   -0.1900
     24 C24        -9.5960   -0.8390   52.9632 C.ar    1  ZINC000642096826   -0.0900
     25 C25       -10.4286   -1.1469   54.0192 C.ar    1  ZINC000642096826   -0.1200
     26 H26        -7.8845    1.5765   63.7828 H       1  ZINC000642096826    0.0600
     27 H27        -9.6378    1.3287   63.6017 H       1  ZINC000642096826    0.0600
     28 H28        -8.7431    0.4619   64.8731 H       1  ZINC000642096826    0.0600
     29 H29        -7.4844   -0.7841   63.1377 H       1  ZINC000642096826    0.0600
     30 H30        -9.2377   -1.0319   62.9567 H       1  ZINC000642096826    0.0600
     31 H31        -8.3099    1.3273   61.4824 H       1  ZINC000642096826    0.0800
     32 H32        -7.4695   -0.1529   60.9616 H       1  ZINC000642096826    0.0800
     33 H33       -11.5769   -0.6214   61.0355 H       1  ZINC000642096826    0.0800
     34 H34       -10.8324    0.4359   62.2586 H       1  ZINC000642096826    0.0800
     35 H35       -10.9414    1.4280   59.4233 H       1  ZINC000642096826    0.0700
     36 H36       -12.4557    1.4148   60.3587 H       1  ZINC000642096826    0.0700
     37 H37       -11.2712    3.5782   60.6132 H       1  ZINC000642096826    0.0600
     38 H38       -11.3519    2.7078   62.1638 H       1  ZINC000642096826    0.0600
     39 H39        -9.8376    2.7210   61.2282 H       1  ZINC000642096826    0.0600
     40 H40       -11.1454   -2.1559   59.3605 H       1  ZINC000642096826    0.0600
     41 H41       -11.3388   -0.4980   58.7425 H       1  ZINC000642096826    0.1000
     42 H42       -11.4751   -3.5108   57.5230 H       1  ZINC000642096826    0.0200
     43 H43       -10.1343   -3.5584   56.3532 H       1  ZINC000642096826    0.0700
     44 H44        -9.8062   -3.7552   58.0915 H       1  ZINC000642096826    0.0900
     45 H45       -11.8312   -1.7129   56.0930 H       1  ZINC000642096826    0.0500
     46 H46       -11.4284   -0.1616   56.8672 H       1  ZINC000642096826    0.0900
     47 H47        -8.6786    0.2602   56.5418 H       1  ZINC000642096826    0.1300
     48 H48        -7.1749    0.8123   54.6753 H       1  ZINC000642096826    0.1400
     49 H49        -6.6535    1.7805   52.9694 H       1  ZINC000642096826    0.4000
     50 H50        -4.9929    0.8371   50.8456 H       1  ZINC000642096826    0.1400
     51 H51        -5.9931    2.0617   48.8616 H       1  ZINC000642096826    0.1000
     52 H52        -7.4415    2.5502   49.8934 H       1  ZINC000642096826    0.1000
     53 H53        -5.8933    3.7716   51.4888 H       1  ZINC000642096826    0.1000
     54 H54        -4.4447    3.2831   50.4570 H       1  ZINC000642096826    0.1100
     55 H55        -9.8555   -1.1479   51.9614 H       1  ZINC000642096826    0.1200
     56 H56       -11.3425   -1.6946   53.8427 H       1  ZINC000642096826    0.1300
@<TRIPOS>BOND
     1     1     2    1
     2     1    26    1
     3     1    27    1
     4     1    28    1
     5     2     3    1
     6     2    29    1
     7     2    30    1
     8     3     4    1
     9     3    31    1
    10     3    32    1
    11     4     5    1
    12     4     8   am
    13     5     6    1
    14     5    33    1
    15     5    34    1
    16     6     7    1
    17     6    35    1
    18     6    36    1
    19     7    37    1
    20     7    38    1
    21     7    39    1
    22     8     9    2
    23     8    10    1
    24    10    11    1
    25    10    40    1
    26    10    41    1
    27    11    12    1
    28    11    13    1
    29    12    42    1
    30    12    43    1
    31    12    44    1
    32    13    14    1
    33    13    45    1
    34    13    46    1
    35    14    25   ar
    36    14    15   ar
    37    15    16   ar
    38    15    47    1
    39    16    17   ar
    40    16    48    1
    41    17    18    1
    42    17    24   ar
    43    18    19    2
    44    18    20   am
    45    20    21    1
    46    20    49    1
    47    21    23    1
    48    21    22    1
    49    21    50    1
    50    22    23    1
    51    22    51    1
    52    22    52    1
    53    23    53    1
    54    23    54    1
    55    24    25   ar
    56    24    55    1
    57    25    56    1
@<TRIPOS>SUBSTRUCTURE
     1 ZINC000642096826        1 TEMP              0 ****  ****    0 ROOT


##########                                Name:    ZINC000284209281
##########                DOCK_Rotatable_Bonds:                   8
##########                         Heavy_Atoms:                  26
##########                    Molecular_Weight:             353.424
##########                DOCK_Rotatable_Bonds:                   8
##########                       Formal_Charge:          0.00999954
##########                     HBond_Acceptors:                   7
##########                        HBond_Donors:                   1
##########                         Heavy_Atoms:                  26
##########                          Grid_Score:          -33.089989
##########                     Grid_vdw_energy:          -32.715298
##########                      Grid_es_energy:           -0.374691
##########           Internal_energy_repulsive:           11.293163

@<TRIPOS>MOLECULE
ZINC000284209281
 49 51 1 0 0
SMALL
USER_CHARGES


@<TRIPOS>ATOM
      1 O1        -10.9042   -1.4156   53.2439 O.2     1  <0>        -0.5100
      2 C2        -10.4438   -0.6134   54.0294 C.2     1  <0>         0.5100
      3 N3        -10.1152   -1.0041   55.2767 N.am    1  <0>        -0.7000
      4 C4        -10.3195   -2.3957   55.6861 C.3     1  <0>         0.1200
      5 C5        -10.8438   -2.4330   57.1231 C.3     1  <0>        -0.1000
      6 C6         -9.8320   -1.8005   58.0435 C.ar    1  <0>        -0.0400
      7 C7         -9.8283   -0.4311   58.2606 C.ar    1  <0>        -0.1700
      8 C8         -8.8852    0.1134   59.1114 C.ar    1  <0>         0.1000
      9 N9         -7.9965   -0.6532   59.7125 N.ar    1  <0>        -0.4900
     10 C10        -7.9703   -1.9589   59.5297 C.ar    1  <0>         0.1000
     11 C11        -8.8862   -2.5748   58.6979 C.ar    1  <0>        -0.1700
     12 C12       -10.2354    0.8063   53.6118 C.2     1  <0>         0.5100
     13 O13       -11.1405    1.6081   53.7143 O.2     1  <0>        -0.5200
     14 N14        -9.0422    1.1962   53.1210 N.am    1  <0>        -0.5800
     15 C15        -7.9339    0.2394   52.9826 C.3     1  <0>         0.0800
     16 C16        -7.3862    0.3321   51.5544 C.3     1  <0>         0.0400
     17 N17        -7.0424    1.7285   51.2549 N.3     1  <0>        -0.5300
     18 C18        -6.3554    1.8356   49.9608 C.3     1  <0>         0.1000
     19 C19        -4.9110    2.2006   50.1876 C.ar    1  <0>         0.1300
     20 C20        -4.5927    3.2038   51.0831 C.ar    1  <0>        -0.1500
     21 C21        -3.2605    3.5316   51.2850 C.ar    1  <0>        -0.0700
     22 C22        -2.2947    2.8350   50.5752 C.ar    1  <0>        -0.1700
     23 C23        -2.6889    1.8438   49.6962 C.ar    1  <0>         0.1000
     24 N24        -3.9651    1.5553   49.5333 N.ar    1  <0>        -0.4800
     25 C25        -8.2317    2.5899   51.2924 C.3     1  <0>         0.0400
     26 C26        -8.8158    2.5884   52.7042 C.3     1  <0>         0.1100
     27 H27        -9.7434   -0.3637   55.9034 H       1  <0>         0.4100
     28 H28       -11.0445   -2.8670   55.0225 H       1  <0>         0.0800
     29 H29        -9.3729   -2.9334   55.6307 H       1  <0>         0.0800
     30 H30       -11.7825   -1.8821   57.1816 H       1  <0>         0.0900
     31 H31       -11.0104   -3.4678   57.4223 H       1  <0>         0.0900
     32 H32       -10.5532    0.2022   57.7706 H       1  <0>         0.1400
     33 H33        -8.8757    1.1793   59.2858 H       1  <0>         0.1600
     34 H34        -7.2270   -2.5543   60.0391 H       1  <0>         0.1600
     35 H35        -8.8598   -3.6446   58.5525 H       1  <0>         0.1400
     36 H36        -7.1456    0.4867   53.6937 H       1  <0>         0.0800
     37 H37        -8.2967   -0.7711   53.1708 H       1  <0>         0.1400
     38 H38        -6.4950   -0.2891   51.4655 H       1  <0>         0.0900
     39 H39        -8.1435   -0.0150   50.8513 H       1  <0>         0.0400
     40 H40        -6.4112    0.8798   49.4396 H       1  <0>         0.0900
     41 H41        -6.8348    2.6067   49.3577 H       1  <0>         0.0600
     42 H42        -5.3716    3.7260   51.6187 H       1  <0>         0.1400
     43 H43        -2.9820    4.3114   51.9783 H       1  <0>         0.1400
     44 H44        -1.2476    3.0641   50.7071 H       1  <0>         0.1400
     45 H45        -1.9427    1.2966   49.1392 H       1  <0>         0.1600
     46 H46        -7.9536    3.6062   51.0135 H       1  <0>         0.1000
     47 H47        -8.9772    2.2115   50.5929 H       1  <0>         0.0400
     48 H48        -9.7604    3.1323   52.7101 H       1  <0>         0.1000
     49 H49        -8.1138    3.0605   53.3914 H       1  <0>         0.0800
@<TRIPOS>BOND
     1     1     2    2
     2     2     3   am
     3     2    12    1
     4     3     4    1
     5     3    27    1
     6     4     5    1
     7     4    28    1
     8     4    29    1
     9     5     6    1
    10     5    30    1
    11     5    31    1
    12     6    11   ar
    13     6     7   ar
    14     7     8   ar
    15     7    32    1
    16     8     9   ar
    17     8    33    1
    18     9    10   ar
    19    10    11   ar
    20    10    34    1
    21    11    35    1
    22    12    13    2
    23    12    14   am
    24    14    26    1
    25    14    15    1
    26    15    16    1
    27    15    36    1
    28    15    37    1
    29    16    17    1
    30    16    38    1
    31    16    39    1
    32    17    18    1
    33    17    25    1
    34    18    19    1
    35    18    40    1
    36    18    41    1
    37    19    24   ar
    38    19    20   ar
    39    20    21   ar
    40    20    42    1
    41    21    22   ar
    42    21    43    1
    43    22    23   ar
    44    22    44    1
    45    23    24   ar
    46    23    45    1
    47    25    26    1
    48    25    46    1
    49    25    47    1
    50    26    48    1
    51    26    49    1
@<TRIPOS>SUBSTRUCTURE
     1 <0>         1 TEMP              0 ****  ****    0 ROOT


##########                                Name:    ZINC000590699876
##########                DOCK_Rotatable_Bonds:                   9
##########                         Heavy_Atoms:                  30
##########                    Molecular_Weight:              421.54
##########                DOCK_Rotatable_Bonds:                   9
##########                       Formal_Charge:          -0.0300004
##########                     HBond_Acceptors:                   9
##########                        HBond_Donors:                   1
##########                         Heavy_Atoms:                  30
##########                          Grid_Score:          -33.084095
##########                     Grid_vdw_energy:          -32.880955
##########                      Grid_es_energy:           -0.203142
##########           Internal_energy_repulsive:          106.982315

@<TRIPOS>MOLECULE
ZINC000590699876
 65 67 1 0 0
SMALL
USER_CHARGES


@<TRIPOS>ATOM
      1 C1        -14.2042    3.0230   58.6731 C.3     1  ZINC000590699876   -0.1700
      2 C2        -14.0657    1.5632   58.3260 C.2     1  ZINC000590699876    0.5100
      3 O3        -14.1589    1.2028   57.1717 O.2     1  ZINC000590699876   -0.5500
      4 N4        -13.8381    0.6580   59.2982 N.am    1  ZINC000590699876   -0.7200
      5 C5        -13.7052   -0.7615   58.9610 C.3     1  ZINC000590699876    0.1100
      6 C6        -12.8004   -1.4331   59.9617 C.2     1  ZINC000590699876    0.5300
      7 O7        -13.2703   -1.9469   60.9547 O.2     1  ZINC000590699876   -0.5200
      8 N8        -11.4693   -1.4625   59.7532 N.am    1  ZINC000590699876   -0.6000
      9 C9        -10.4732   -2.0826   60.6460 C.3     1  ZINC000590699876    0.1000
     10 C10        -9.2656   -2.4038   59.7304 C.3     1  ZINC000590699876   -0.1300
     11 C11        -9.2664   -1.1822   58.7738 C.3     1  ZINC000590699876   -0.1300
     12 C12       -10.7705   -0.8870   58.5948 C.3     1  ZINC000590699876    0.1200
     13 H13       -10.9359    0.1900   58.5660 H       1  ZINC000590699876    0.1000
     14 C14       -11.2680   -1.5160   57.3190 C.2     1  ZINC000590699876    0.5100
     15 O15       -11.8429   -2.5834   57.3532 O.2     1  ZINC000590699876   -0.5200
     16 N16       -11.0741   -0.8926   56.1400 N.am    1  ZINC000590699876   -0.6100
     17 C17       -10.3725    0.3985   56.0751 C.3     1  ZINC000590699876    0.1000
     18 C18        -9.2615    0.2964   55.0247 C.3     1  ZINC000590699876    0.0400
     19 N19        -9.8350   -0.1634   53.7529 N.3     1  ZINC000590699876   -0.5200
     20 C20        -8.8375   -0.1104   52.6758 C.3     1  ZINC000590699876    0.0400
     21 C21        -8.9286    1.2187   51.9717 C.2     1  ZINC000590699876    0.5200
     22 O22        -9.8270    1.9876   52.2415 O.2     1  ZINC000590699876   -0.5100
     23 N23        -8.0118    1.5532   51.0422 N.am    1  ZINC000590699876   -0.6100
     24 C24        -6.9177    0.6325   50.7045 C.3     1  ZINC000590699876    0.1100
     25 C25        -5.5860    1.3759   50.8472 C.3     1  ZINC000590699876   -0.1400
     26 C26        -5.6224    2.6475   49.9963 C.3     1  ZINC000590699876   -0.1200
     27 C27        -6.7428    3.5639   50.4933 C.3     1  ZINC000590699876   -0.1300
     28 C28        -8.0910    2.8429   50.3426 C.3     1  ZINC000590699876    0.1400
     29 H29        -8.3017    2.6791   49.2858 H       1  ZINC000590699876    0.0700
     30 C30        -9.2007    3.6958   50.9608 C.3     1  ZINC000590699876   -0.1400
     31 C31       -10.4007   -1.5130   53.8806 C.3     1  ZINC000590699876    0.0400
     32 C32       -11.5531   -1.4882   54.8834 C.3     1  ZINC000590699876    0.1200
     33 H33       -14.3835    3.5972   57.7642 H       1  ZINC000590699876    0.1000
     34 H34       -15.0418    3.1558   59.3579 H       1  ZINC000590699876    0.0900
     35 H35       -13.2875    3.3721   59.1486 H       1  ZINC000590699876    0.0900
     36 H36       -13.7623    0.9462   60.2212 H       1  ZINC000590699876    0.4100
     37 H37       -14.6872   -1.2341   58.9845 H       1  ZINC000590699876    0.1000
     38 H38       -13.2788   -0.8593   57.9626 H       1  ZINC000590699876    0.1000
     39 H39       -10.1798   -1.3844   61.4299 H       1  ZINC000590699876    0.0800
     40 H40       -10.8727   -2.9981   61.0821 H       1  ZINC000590699876    0.0800
     41 H41        -8.3407   -2.4493   60.3052 H       1  ZINC000590699876    0.0900
     42 H42        -9.4280   -3.3308   59.1804 H       1  ZINC000590699876    0.0800
     43 H43        -8.7549   -0.3348   59.2301 H       1  ZINC000590699876    0.1000
     44 H44        -8.8102   -1.4405   57.8182 H       1  ZINC000590699876    0.0900
     45 H45       -11.0742    1.1826   55.7909 H       1  ZINC000590699876    0.0800
     46 H46        -9.9371    0.6279   57.0477 H       1  ZINC000590699876    0.0900
     47 H47        -8.8028    1.2752   54.8842 H       1  ZINC000590699876    0.0900
     48 H48        -8.5067   -0.4143   55.3615 H       1  ZINC000590699876    0.0400
     49 H49        -7.8399   -0.2302   53.0983 H       1  ZINC000590699876    0.1000
     50 H50        -9.0290   -0.9129   51.9635 H       1  ZINC000590699876    0.0600
     51 H51        -6.9349   -0.2199   51.3836 H       1  ZINC000590699876    0.0800
     52 H52        -7.0350    0.2866   49.6776 H       1  ZINC000590699876    0.0700
     53 H53        -5.4279    1.6420   51.8924 H       1  ZINC000590699876    0.0700
     54 H54        -4.7729    0.7342   50.5077 H       1  ZINC000590699876    0.0800
     55 H55        -4.6669    3.1657   50.0766 H       1  ZINC000590699876    0.0700
     56 H56        -5.8051    2.3824   48.9550 H       1  ZINC000590699876    0.0600
     57 H57        -6.5739    3.8093   51.5419 H       1  ZINC000590699876    0.0700
     58 H58        -6.7532    4.4795   49.9019 H       1  ZINC000590699876    0.0700
     59 H59        -9.2059    4.6801   50.4925 H       1  ZINC000590699876    0.0400
     60 H60       -10.1637    3.2116   50.7993 H       1  ZINC000590699876    0.0700
     61 H61        -9.0229    3.8034   52.0308 H       1  ZINC000590699876    0.0700
     62 H62       -10.7685   -1.8466   52.9101 H       1  ZINC000590699876    0.1100
     63 H63        -9.6302   -2.1986   54.2332 H       1  ZINC000590699876    0.0300
     64 H64       -11.9006   -2.5047   55.0672 H       1  ZINC000590699876    0.0900
     65 H65       -12.3701   -0.8850   54.4873 H       1  ZINC000590699876    0.0800
@<TRIPOS>BOND
     1     1     2    1
     2     1    33    1
     3     1    34    1
     4     1    35    1
     5     2     3    2
     6     2     4   am
     7     4     5    1
     8     4    36    1
     9     5     6    1
    10     5    37    1
    11     5    38    1
    12     6     7    2
    13     6     8   am
    14     8    12    1
    15     8     9    1
    16     9    10    1
    17     9    39    1
    18     9    40    1
    19    10    11    1
    20    10    41    1
    21    10    42    1
    22    11    12    1
    23    11    43    1
    24    11    44    1
    25    12    13    1
    26    12    14    1
    27    14    15    2
    28    14    16   am
    29    16    32    1
    30    16    17    1
    31    17    18    1
    32    17    45    1
    33    17    46    1
    34    18    19    1
    35    18    47    1
    36    18    48    1
    37    19    20    1
    38    19    31    1
    39    20    21    1
    40    20    49    1
    41    20    50    1
    42    21    22    2
    43    21    23   am
    44    23    28    1
    45    23    24    1
    46    24    25    1
    47    24    51    1
    48    24    52    1
    49    25    26    1
    50    25    53    1
    51    25    54    1
    52    26    27    1
    53    26    55    1
    54    26    56    1
    55    27    28    1
    56    27    57    1
    57    27    58    1
    58    28    29    1
    59    28    30    1
    60    30    59    1
    61    30    60    1
    62    30    61    1
    63    31    32    1
    64    31    62    1
    65    31    63    1
    66    32    64    1
    67    32    65    1
@<TRIPOS>SUBSTRUCTURE
     1 ZINC000590699876        1 TEMP              0 ****  ****    0 ROOT


##########                                Name:    ZINC001078110631
##########                DOCK_Rotatable_Bonds:                   7
##########                         Heavy_Atoms:                  25
##########                    Molecular_Weight:             353.369
##########                DOCK_Rotatable_Bonds:                   7
##########                       Formal_Charge:           0.0100006
##########                     HBond_Acceptors:                   8
##########                        HBond_Donors:                   2
##########                         Heavy_Atoms:                  25
##########                          Grid_Score:          -33.022156
##########                     Grid_vdw_energy:          -31.889284
##########                      Grid_es_energy:           -1.132872
##########           Internal_energy_repulsive:           10.489721

@<TRIPOS>MOLECULE
ZINC001078110631
 46 48 1 0 0
SMALL
USER_CHARGES


@<TRIPOS>ATOM
      1 O1         -3.4897    3.5402   50.8941 O.2     1  ZINC001078110631   -0.5100
      2 C2         -3.4770    2.4493   50.3572 C.2     1  ZINC001078110631    0.5600
      3 N3         -4.6241    1.7573   50.2098 N.am    1  ZINC001078110631   -0.7200
      4 C4         -5.8855    2.3169   50.7019 C.3     1  ZINC001078110631    0.1500
      5 H5         -5.9281    3.3872   50.5008 H       1  ZINC001078110631    0.1200
      6 C6         -6.0367    2.0492   52.2148 C.3     1  ZINC001078110631    0.0300
      7 N7         -7.4839    1.7714   52.4029 N.3     1  ZINC001078110631   -0.5000
      8 C8         -7.7198    1.0281   53.6479 C.3     1  ZINC001078110631    0.0300
      9 C9         -9.2221    0.8034   53.8309 C.3     1  ZINC001078110631    0.1300
     10 N10        -9.4528    0.0025   55.0357 N.am    1  ZINC001078110631   -0.6200
     11 C11        -8.6444    0.0927   56.2573 C.3     1  ZINC001078110631    0.1000
     12 C12        -9.4916   -0.5763   57.3624 C.3     1  ZINC001078110631   -0.1300
     13 C13       -10.3809   -1.5373   56.5397 C.3     1  ZINC001078110631   -0.1600
     14 C14       -10.4355   -0.9053   55.1663 C.2     1  ZINC001078110631    0.5200
     15 O15       -11.2438   -1.1826   54.3056 O.2     1  ZINC001078110631   -0.5200
     16 C16        -7.8562    0.9566   51.2178 C.3     1  ZINC001078110631    0.0000
     17 C17        -7.0824    1.5999   50.0440 C.3     1  ZINC001078110631    0.1000
     18 H18        -6.7312    0.8312   49.3556 H       1  ZINC001078110631    0.0700
     19 O19        -7.9129    2.5384   49.3571 O.3     1  ZINC001078110631   -0.5500
     20 C20        -2.2064    1.8857   49.8615 C.ar    1  ZINC001078110631   -0.1900
     21 C21        -2.2118    0.7414   49.0604 C.ar    1  ZINC001078110631   -0.0300
     22 C22        -1.0227    0.2193   48.6003 C.ar    1  ZINC001078110631   -0.1700
     23 C23         0.1800    0.8267   48.9304 C.ar    1  ZINC001078110631    0.1600
     24 F24         1.3420    0.3090   48.4757 F       1  ZINC001078110631   -0.1200
     25 C25         0.1946    1.9620   49.7241 C.ar    1  ZINC001078110631   -0.2000
     26 C26        -0.9913    2.4986   50.1876 C.ar    1  ZINC001078110631    0.2000
     27 F27        -0.9771    3.6058   50.9615 F       1  ZINC001078110631   -0.1000
     28 H28        -4.6145    0.8888   49.7779 H       1  ZINC001078110631    0.4000
     29 H29        -5.4422    1.1843   52.5091 H       1  ZINC001078110631    0.0500
     30 H30        -5.7406    2.9279   52.7877 H       1  ZINC001078110631    0.1000
     31 H31        -7.2117    0.0651   53.5979 H       1  ZINC001078110631    0.0400
     32 H32        -7.3326    1.5998   54.4913 H       1  ZINC001078110631    0.0800
     33 H33        -9.7237    1.7658   53.9328 H       1  ZINC001078110631    0.0900
     34 H34        -9.6191    0.2769   52.9630 H       1  ZINC001078110631    0.0800
     35 H35        -7.7037   -0.4422   56.1275 H       1  ZINC001078110631    0.0700
     36 H36        -8.4544    1.1364   56.5077 H       1  ZINC001078110631    0.0800
     37 H37        -8.8597   -1.1287   58.0577 H       1  ZINC001078110631    0.0900
     38 H38       -10.0975    0.1608   57.8894 H       1  ZINC001078110631    0.0800
     39 H39        -9.9283   -2.5277   56.4904 H       1  ZINC001078110631    0.1100
     40 H40       -11.3806   -1.5946   56.9702 H       1  ZINC001078110631    0.1000
     41 H41        -7.5465   -0.0792   51.3561 H       1  ZINC001078110631    0.0600
     42 H42        -8.9302    1.0126   51.0401 H       1  ZINC001078110631    0.0900
     43 H43        -7.4856    2.9608   48.5995 H       1  ZINC001078110631    0.3800
     44 H44        -3.1468    0.2666   48.8021 H       1  ZINC001078110631    0.1500
     45 H45        -1.0269   -0.6655   47.9811 H       1  ZINC001078110631    0.1500
     46 H46         1.1340    2.4305   49.9780 H       1  ZINC001078110631    0.1600
@<TRIPOS>BOND
     1     1     2    2
     2     2     3   am
     3     2    20    1
     4     3     4    1
     5     3    28    1
     6     4     5    1
     7     4    17    1
     8     4     6    1
     9     6     7    1
    10     6    29    1
    11     6    30    1
    12     7     8    1
    13     7    16    1
    14     8     9    1
    15     8    31    1
    16     8    32    1
    17     9    10    1
    18     9    33    1
    19     9    34    1
    20    10    14   am
    21    10    11    1
    22    11    12    1
    23    11    35    1
    24    11    36    1
    25    12    13    1
    26    12    37    1
    27    12    38    1
    28    13    14    1
    29    13    39    1
    30    13    40    1
    31    14    15    2
    32    16    17    1
    33    16    41    1
    34    16    42    1
    35    17    18    1
    36    17    19    1
    37    19    43    1
    38    20    26   ar
    39    20    21   ar
    40    21    22   ar
    41    21    44    1
    42    22    23   ar
    43    22    45    1
    44    23    24    1
    45    23    25   ar
    46    25    26   ar
    47    25    46    1
    48    26    27    1
@<TRIPOS>SUBSTRUCTURE
     1 ZINC001078110631        1 TEMP              0 ****  ****    0 ROOT


##########                                Name:    ZINC000482187991
##########                DOCK_Rotatable_Bonds:                  11
##########                         Heavy_Atoms:                  29
##########                    Molecular_Weight:             407.414
##########                DOCK_Rotatable_Bonds:                  11
##########                       Formal_Charge:           0.0299996
##########                     HBond_Acceptors:                   8
##########                        HBond_Donors:                   1
##########                         Heavy_Atoms:                  29
##########                          Grid_Score:          -33.018852
##########                     Grid_vdw_energy:          -32.598560
##########                      Grid_es_energy:           -0.420292
##########           Internal_energy_repulsive:          117.763519

@<TRIPOS>MOLECULE
ZINC000482187991
 52 53 1 0 0
SMALL
USER_CHARGES


@<TRIPOS>ATOM
      1 C1         -1.9970   -0.4307   48.0889 C.3     1  ZINC000482187991    0.0200
      2 O2         -1.1877    0.6381   48.5838 O.3     1  ZINC000482187991   -0.3000
      3 C3         -1.7810    1.5198   49.4325 C.ar    1  ZINC000482187991    0.1400
      4 C4         -3.1536    1.6727   49.4196 C.ar    1  ZINC000482187991   -0.1700
      5 C5         -3.7633    2.5802   50.2941 C.ar    1  ZINC000482187991   -0.1000
      6 C6         -5.2226    2.7454   50.2837 C.2     1  ZINC000482187991    0.4000
      7 O7         -5.7069    3.8518   50.1706 O.2     1  ZINC000482187991   -0.4500
      8 C8         -6.1183    1.5405   50.4135 C.3     1  ZINC000482187991   -0.1500
      9 C9         -7.4970    1.9809   50.9093 C.3     1  ZINC000482187991   -0.1300
     10 C10        -8.2348    0.7903   51.4654 C.2     1  ZINC000482187991    0.5200
     11 O11        -8.0905   -0.3027   50.9601 O.2     1  ZINC000482187991   -0.5200
     12 N12        -9.0553    0.9402   52.5241 N.am    1  ZINC000482187991   -0.7200
     13 C13        -9.7739   -0.2169   53.0636 C.3     1  ZINC000482187991    0.1500
     14 H14        -9.8733   -0.9766   52.2883 H       1  ZINC000482187991    0.1300
     15 C15       -11.1429    0.2124   53.5247 C.ar    1  ZINC000482187991   -0.1100
     16 C16       -11.3297    0.6486   54.8230 C.ar    1  ZINC000482187991   -0.1000
     17 C17       -12.5854    1.0423   55.2460 C.ar    1  ZINC000482187991   -0.1200
     18 C18       -13.6544    1.0001   54.3705 C.ar    1  ZINC000482187991   -0.1100
     19 C19       -13.4674    0.5647   53.0719 C.ar    1  ZINC000482187991   -0.1200
     20 C20       -12.2108    0.1751   52.6477 C.ar    1  ZINC000482187991   -0.1000
     21 C21        -8.9950   -0.7947   54.2470 C.3     1  ZINC000482187991    0.2500
     22 F22        -8.8674    0.1805   55.2419 F       1  ZINC000482187991   -0.1900
     23 F23        -9.6811   -1.8996   54.7620 F       1  ZINC000482187991   -0.2000
     24 C24        -2.9786    3.3297   51.1789 C.ar    1  ZINC000482187991   -0.1900
     25 C25        -1.6065    3.1714   51.1860 C.ar    1  ZINC000482187991    0.1400
     26 O26        -0.8433    3.8985   52.0453 O.3     1  ZINC000482187991   -0.3000
     27 C27        -1.5324    4.7457   52.9670 C.3     1  ZINC000482187991    0.0200
     28 C28        -1.0038    2.2634   50.3180 C.ar    1  ZINC000482187991    0.0600
     29 O29         0.3459    2.1100   50.3282 O.3     1  ZINC000482187991   -0.3100
     30 C30         0.9012    1.1889   49.3874 C.3     1  ZINC000482187991    0.0400
     31 H31        -1.4032   -1.0586   47.4247 H       1  ZINC000482187991    0.1100
     32 H32        -2.3605   -1.0283   48.9249 H       1  ZINC000482187991    0.0600
     33 H33        -2.8445   -0.0205   47.5398 H       1  ZINC000482187991    0.0600
     34 H34        -3.7557    1.0931   48.7355 H       1  ZINC000482187991    0.1500
     35 H35        -6.2191    1.0563   49.4420 H       1  ZINC000482187991    0.1100
     36 H36        -5.6831    0.8392   51.1254 H       1  ZINC000482187991    0.1100
     37 H37        -7.3794    2.7325   51.6900 H       1  ZINC000482187991    0.1000
     38 H38        -8.0634    2.4043   50.0798 H       1  ZINC000482187991    0.1000
     39 H39        -9.1698    1.8142   52.9290 H       1  ZINC000482187991    0.4100
     40 H40       -10.4945    0.6816   55.5070 H       1  ZINC000482187991    0.1200
     41 H41       -12.7315    1.3825   56.2605 H       1  ZINC000482187991    0.1300
     42 H42       -14.6357    1.3070   54.7011 H       1  ZINC000482187991    0.1300
     43 H43       -14.3027    0.5314   52.3880 H       1  ZINC000482187991    0.1300
     44 H44       -12.0648   -0.1651   51.6331 H       1  ZINC000482187991    0.1300
     45 H45        -8.0047   -1.1051   53.9134 H       1  ZINC000482187991    0.1200
     46 H46        -3.4455    4.0309   51.8546 H       1  ZINC000482187991    0.1500
     47 H47        -2.1278    5.4739   52.4160 H       1  ZINC000482187991    0.0600
     48 H48        -2.1872    4.1422   53.5957 H       1  ZINC000482187991    0.0600
     49 H49        -0.8079    5.2674   53.5924 H       1  ZINC000482187991    0.1100
     50 H50         0.4921    0.1948   49.5673 H       1  ZINC000482187991    0.0500
     51 H51         0.6502    1.5074   48.3755 H       1  ZINC000482187991    0.0500
     52 H52         1.9849    1.1620   49.5015 H       1  ZINC000482187991    0.1000
@<TRIPOS>BOND
     1     1     2    1
     2     1    31    1
     3     1    32    1
     4     1    33    1
     5     2     3    1
     6     3    28   ar
     7     3     4   ar
     8     4     5   ar
     9     4    34    1
    10     5     6    1
    11     5    24   ar
    12     6     7    2
    13     6     8    1
    14     8     9    1
    15     8    35    1
    16     8    36    1
    17     9    10    1
    18     9    37    1
    19     9    38    1
    20    10    11    2
    21    10    12   am
    22    12    13    1
    23    12    39    1
    24    13    14    1
    25    13    15    1
    26    13    21    1
    27    15    20   ar
    28    15    16   ar
    29    16    17   ar
    30    16    40    1
    31    17    18   ar
    32    17    41    1
    33    18    19   ar
    34    18    42    1
    35    19    20   ar
    36    19    43    1
    37    20    44    1
    38    21    22    1
    39    21    23    1
    40    21    45    1
    41    24    25   ar
    42    24    46    1
    43    25    26    1
    44    25    28   ar
    45    26    27    1
    46    27    47    1
    47    27    48    1
    48    27    49    1
    49    28    29    1
    50    29    30    1
    51    30    50    1
    52    30    51    1
    53    30    52    1
@<TRIPOS>SUBSTRUCTURE
     1 ZINC000482187991        1 TEMP              0 ****  ****    0 ROOT


##########                                Name:    ZINC000533037883
##########                DOCK_Rotatable_Bonds:                   7
##########                         Heavy_Atoms:                  27
##########                    Molecular_Weight:             368.479
##########                DOCK_Rotatable_Bonds:                   7
##########                       Formal_Charge:          0.00999947
##########                     HBond_Acceptors:                   6
##########                        HBond_Donors:                   1
##########                         Heavy_Atoms:                  27
##########                          Grid_Score:          -33.016571
##########                     Grid_vdw_energy:          -33.011662
##########                      Grid_es_energy:           -0.004908
##########           Internal_energy_repulsive:           15.331542

@<TRIPOS>MOLECULE
ZINC000533037883
 55 58 1 0 0
SMALL
USER_CHARGES


@<TRIPOS>ATOM
      1 O1        -10.4447   -2.7963   55.4679 O.2     1  ZINC000533037883   -0.5900
      2 C2        -10.7056   -1.7796   56.0815 C.2     1  ZINC000533037883    0.7100
      3 N3        -11.1310   -1.8534   57.3583 N.am    1  ZINC000533037883   -0.7500
      4 C4        -11.2848   -3.1590   58.0048 C.3     1  ZINC000533037883    0.1400
      5 C5         -9.9787   -3.5380   58.7057 C.3     1  ZINC000533037883   -0.0500
      6 C6         -9.5355   -2.4015   59.5907 C.2     1  ZINC000533037883   -0.2300
      7 C7        -10.3374   -1.6424   60.3729 C.2     1  ZINC000533037883    0.0600
      8 N8         -9.5574   -0.7365   61.0051 N.pl3   1  ZINC000533037883   -0.3200
      9 C9         -9.9952    0.2406   61.9099 C.ar    1  ZINC000533037883    0.1600
     10 C10        -9.0723    0.9595   62.6577 C.ar    1  ZINC000533037883   -0.1400
     11 C11        -9.5067    1.9216   63.5484 C.ar    1  ZINC000533037883   -0.0900
     12 C12       -10.8592    2.1689   63.6962 C.ar    1  ZINC000533037883   -0.1300
     13 C13       -11.7806    1.4545   62.9528 C.ar    1  ZINC000533037883   -0.0900
     14 C14       -11.3521    0.4955   62.0560 C.ar    1  ZINC000533037883   -0.1200
     15 N15        -8.2343   -0.9480   60.5963 N.2     1  ZINC000533037883   -0.2900
     16 C16        -8.2216   -1.9488   59.7531 C.2     1  ZINC000533037883    0.0700
     17 N17       -10.5641   -0.5785   55.4867 N.am    1  ZINC000533037883   -0.6300
     18 C18       -10.8696    0.6592   56.2172 C.3     1  ZINC000533037883    0.1100
     19 C19        -9.6555    1.5903   56.1389 C.3     1  ZINC000533037883   -0.1400
     20 C20        -9.2752    1.8038   54.6720 C.3     1  ZINC000533037883   -0.1100
     21 C21        -8.8963    0.4620   54.0410 C.3     1  ZINC000533037883   -0.0900
     22 H22        -8.0650    0.0225   54.5922 H       1  ZINC000533037883    0.0800
     23 C23        -8.4839    0.6812   52.5840 C.3     1  ZINC000533037883   -0.1200
     24 H24        -9.2450    1.2486   52.0484 H       1  ZINC000533037883    0.0900
     25 C25        -7.1048    1.3905   52.5007 C.3     1  ZINC000533037883   -0.1500
     26 C26        -6.5876    0.8685   51.1365 C.3     1  ZINC000533037883    0.0500
     27 O27        -7.0467   -0.4901   51.0563 O.3     1  ZINC000533037883   -0.3900
     28 C28        -8.2078   -0.6661   51.8825 C.3     1  ZINC000533037883    0.0500
     29 C29       -10.0959   -0.4815   54.0974 C.3     1  ZINC000533037883    0.1300
     30 H30       -11.3354   -1.0420   57.8491 H       1  ZINC000533037883    0.4000
     31 H31       -12.0895   -3.1087   58.7382 H       1  ZINC000533037883    0.0700
     32 H32       -11.5250   -3.9107   57.2528 H       1  ZINC000533037883    0.0700
     33 H33       -10.1371   -4.4299   59.3118 H       1  ZINC000533037883    0.0800
     34 H34        -9.2103   -3.7378   57.9590 H       1  ZINC000533037883    0.0800
     35 H35       -11.4080   -1.7419   60.4738 H       1  ZINC000533037883    0.1800
     36 H36        -8.0159    0.7664   62.5433 H       1  ZINC000533037883    0.1300
     37 H37        -8.7892    2.4812   64.1304 H       1  ZINC000533037883    0.1300
     38 H38       -11.1964    2.9212   64.3938 H       1  ZINC000533037883    0.1300
     39 H39       -12.8363    1.6497   63.0703 H       1  ZINC000533037883    0.1300
     40 H40       -12.0723   -0.0620   61.4755 H       1  ZINC000533037883    0.1400
     41 H41        -7.3480   -2.3519   59.2624 H       1  ZINC000533037883    0.1900
     42 H42       -11.7335    1.1466   55.7653 H       1  ZINC000533037883    0.0700
     43 H43       -11.0837    0.4247   57.2599 H       1  ZINC000533037883    0.0800
     44 H44        -9.9028    2.5494   56.5939 H       1  ZINC000533037883    0.0800
     45 H45        -8.8171    1.1402   56.6704 H       1  ZINC000533037883    0.0700
     46 H46       -10.1225    2.2309   54.1356 H       1  ZINC000533037883    0.0700
     47 H47        -8.4268    2.4856   54.6124 H       1  ZINC000533037883    0.0700
     48 H48        -7.2205    2.4742   52.4883 H       1  ZINC000533037883    0.0800
     49 H49        -6.4516    1.0763   53.3147 H       1  ZINC000533037883    0.0800
     50 H50        -7.0075    1.4585   50.3218 H       1  ZINC000533037883    0.0600
     51 H51        -5.4985    0.9022   51.1068 H       1  ZINC000533037883    0.0900
     52 H52        -8.0168   -1.4366   52.6295 H       1  ZINC000533037883    0.0700
     53 H53        -9.0606   -0.9503   51.2662 H       1  ZINC000533037883    0.0700
     54 H54        -9.8017   -1.4684   53.7400 H       1  ZINC000533037883    0.1000
     55 H55       -10.8991   -0.0892   53.4738 H       1  ZINC000533037883    0.0700
@<TRIPOS>BOND
     1     1     2    2
     2     2     3   am
     3     2    17   am
     4     3     4    1
     5     3    30    1
     6     4     5    1
     7     4    31    1
     8     4    32    1
     9     5     6    1
    10     5    33    1
    11     5    34    1
    12     6    16    1
    13     6     7    2
    14     7     8    1
    15     7    35    1
    16     8     9    1
    17     8    15    1
    18     9    14   ar
    19     9    10   ar
    20    10    11   ar
    21    10    36    1
    22    11    12   ar
    23    11    37    1
    24    12    13   ar
    25    12    38    1
    26    13    14   ar
    27    13    39    1
    28    14    40    1
    29    15    16    2
    30    16    41    1
    31    17    29    1
    32    17    18    1
    33    18    19    1
    34    18    42    1
    35    18    43    1
    36    19    20    1
    37    19    44    1
    38    19    45    1
    39    20    21    1
    40    20    46    1
    41    20    47    1
    42    21    22    1
    43    21    23    1
    44    21    29    1
    45    23    24    1
    46    23    28    1
    47    23    25    1
    48    25    26    1
    49    25    48    1
    50    25    49    1
    51    26    27    1
    52    26    50    1
    53    26    51    1
    54    27    28    1
    55    28    52    1
    56    28    53    1
    57    29    54    1
    58    29    55    1
@<TRIPOS>SUBSTRUCTURE
     1 ZINC000533037883        1 TEMP              0 ****  ****    0 ROOT


##########                                Name:    ZINC000762020937
##########                DOCK_Rotatable_Bonds:                  10
##########                         Heavy_Atoms:                  28
##########                    Molecular_Weight:             391.467
##########                DOCK_Rotatable_Bonds:                  10
##########                       Formal_Charge:         -1.8999e-07
##########                     HBond_Acceptors:                   8
##########                        HBond_Donors:                   1
##########                         Heavy_Atoms:                  28
##########                          Grid_Score:          -32.992481
##########                     Grid_vdw_energy:          -32.263088
##########                      Grid_es_energy:           -0.729394
##########           Internal_energy_repulsive:           29.640518

@<TRIPOS>MOLECULE
ZINC000762020937
 57 58 1 0 0
SMALL
USER_CHARGES


@<TRIPOS>ATOM
      1 C1          0.2106    3.3095   52.1039 C.3     1  ZINC000762020937    0.0200
      2 O2         -0.2985    2.6273   50.9560 O.3     1  ZINC000762020937   -0.3000
      3 C3         -1.6444    2.6612   50.7642 C.ar    1  ZINC000762020937    0.1100
      4 C4         -2.4044    3.6591   51.3517 C.ar    1  ZINC000762020937   -0.1700
      5 C5         -3.7729    3.6923   51.1553 C.ar    1  ZINC000762020937   -0.1000
      6 C6         -4.3854    2.7311   50.3736 C.ar    1  ZINC000762020937   -0.1000
      7 C7         -5.8771    2.7717   50.1632 C.3     1  ZINC000762020937    0.0200
      8 C8         -6.5334    1.7153   51.0142 C.2     1  ZINC000762020937    0.1900
      9 N9         -7.5826    1.8737   51.7847 N.2     1  ZINC000762020937   -0.4700
     10 C10        -7.8061    0.6711   52.3437 C.2     1  ZINC000762020937    0.1600
     11 C11        -8.9073    0.3295   53.3141 C.3     1  ZINC000762020937    0.2600
     12 H12        -9.1324   -0.7351   53.2483 H       1  ZINC000762020937    0.1200
     13 N13        -8.4760    0.6539   54.6761 N.am    1  ZINC000762020937   -0.7100
     14 C14        -8.6648   -0.2340   55.6724 C.2     1  ZINC000762020937    0.6600
     15 O15        -9.1915   -1.3042   55.4406 O.2     1  ZINC000762020937   -0.5600
     16 O16        -8.2699    0.0649   56.9243 O.3     1  ZINC000762020937   -0.3600
     17 C17        -9.2935    0.0729   57.9541 C.3     1  ZINC000762020937    0.1400
     18 C18       -10.5622    0.7301   57.4071 C.3     1  ZINC000762020937   -0.1800
     19 C19        -9.6046   -1.3647   58.3752 C.3     1  ZINC000762020937   -0.1400
     20 C20        -8.7921    0.8619   59.1654 C.3     1  ZINC000762020937   -0.1800
     21 C21       -10.1597    1.1378   52.9696 C.3     1  ZINC000762020937   -0.1000
     22 C22       -11.4032    0.2805   53.2139 C.3     1  ZINC000762020937   -0.1400
     23 C23       -10.2196    2.3864   53.8518 C.3     1  ZINC000762020937   -0.1400
     24 N24        -6.8984   -0.1423   51.8931 N.2     1  ZINC000762020937   -0.3700
     25 O25        -6.1608    0.4365   51.1234 O.3     1  ZINC000762020937    0.0900
     26 C26        -3.6324    1.7324   49.7839 C.ar    1  ZINC000762020937   -0.1500
     27 C27        -2.2605    1.6963   49.9723 C.ar    1  ZINC000762020937    0.1000
     28 O28        -1.5186    0.7149   49.3931 O.3     1  ZINC000762020937   -0.3100
     29 C29        -1.8540    0.3541   48.0516 C.3     1  ZINC000762020937    0.0200
     30 H30        -0.0503    4.3661   52.0440 H       1  ZINC000762020937    0.0600
     31 H31        -0.2247    2.8784   53.0055 H       1  ZINC000762020937    0.0600
     32 H32         1.2950    3.2043   52.1378 H       1  ZINC000762020937    0.1000
     33 H33        -1.9284    4.4111   51.9635 H       1  ZINC000762020937    0.1400
     34 H34        -4.3643    4.4710   51.6139 H       1  ZINC000762020937    0.1300
     35 H35        -6.2572    3.7535   50.4454 H       1  ZINC000762020937    0.1200
     36 H36        -6.1012    2.5833   49.1132 H       1  ZINC000762020937    0.1200
     37 H37        -8.0544    1.5078   54.8609 H       1  ZINC000762020937    0.4100
     38 H38       -10.9194    0.1681   56.5441 H       1  ZINC000762020937    0.0600
     39 H39       -11.3306    0.7362   58.1801 H       1  ZINC000762020937    0.0700
     40 H40       -10.3405    1.7543   57.1071 H       1  ZINC000762020937    0.0900
     41 H41        -8.7008   -1.8329   58.7650 H       1  ZINC000762020937    0.0700
     42 H42       -10.3732   -1.3587   59.1482 H       1  ZINC000762020937    0.0800
     43 H43        -9.9619   -1.9267   57.5123 H       1  ZINC000762020937    0.0700
     44 H44        -8.5703    1.8861   58.8654 H       1  ZINC000762020937    0.0900
     45 H45        -9.5604    0.8680   59.9385 H       1  ZINC000762020937    0.0700
     46 H46        -7.8883    0.3937   59.5552 H       1  ZINC000762020937    0.0600
     47 H47       -10.1235    1.4349   51.9215 H       1  ZINC000762020937    0.0800
     48 H48       -11.4395   -0.0166   54.2620 H       1  ZINC000762020937    0.0600
     49 H49       -12.2955    0.8565   52.9685 H       1  ZINC000762020937    0.0600
     50 H50       -11.3605   -0.6089   52.5854 H       1  ZINC000762020937    0.0500
     51 H51        -9.3337    2.9971   53.6777 H       1  ZINC000762020937    0.0500
     52 H52       -11.1119    2.9623   53.6064 H       1  ZINC000762020937    0.0600
     53 H53       -10.2559    2.0893   54.8999 H       1  ZINC000762020937    0.0700
     54 H54        -4.1136    0.9824   49.1735 H       1  ZINC000762020937    0.1400
     55 H55        -1.7460    1.2240   47.4037 H       1  ZINC000762020937    0.0600
     56 H56        -1.1872   -0.4378   47.7108 H       1  ZINC000762020937    0.1000
     57 H57        -2.8846    0.0011   48.0171 H       1  ZINC000762020937    0.0600
@<TRIPOS>BOND
     1     1     2    1
     2     1    30    1
     3     1    31    1
     4     1    32    1
     5     2     3    1
     6     3    27   ar
     7     3     4   ar
     8     4     5   ar
     9     4    33    1
    10     5     6   ar
    11     5    34    1
    12     6     7    1
    13     6    26   ar
    14     7     8    1
    15     7    35    1
    16     7    36    1
    17     8    25    1
    18     8     9    2
    19     9    10    1
    20    10    11    1
    21    10    24    2
    22    11    12    1
    23    11    13    1
    24    11    21    1
    25    13    14   am
    26    13    37    1
    27    14    15    2
    28    14    16    1
    29    16    17    1
    30    17    18    1
    31    17    19    1
    32    17    20    1
    33    18    38    1
    34    18    39    1
    35    18    40    1
    36    19    41    1
    37    19    42    1
    38    19    43    1
    39    20    44    1
    40    20    45    1
    41    20    46    1
    42    21    22    1
    43    21    23    1
    44    21    47    1
    45    22    48    1
    46    22    49    1
    47    22    50    1
    48    23    51    1
    49    23    52    1
    50    23    53    1
    51    24    25    1
    52    26    27   ar
    53    26    54    1
    54    27    28    1
    55    28    29    1
    56    29    55    1
    57    29    56    1
    58    29    57    1
@<TRIPOS>SUBSTRUCTURE
     1 ZINC000762020937        1 TEMP              0 ****  ****    0 ROOT


##########                                Name:    ZINC001041713551
##########                DOCK_Rotatable_Bonds:                  10
##########                         Heavy_Atoms:                  22
##########                    Molecular_Weight:             330.448
##########                DOCK_Rotatable_Bonds:                  10
##########                       Formal_Charge:          -0.0100006
##########                     HBond_Acceptors:                   7
##########                        HBond_Donors:                   2
##########                         Heavy_Atoms:                  22
##########                          Grid_Score:          -32.977409
##########                     Grid_vdw_energy:          -31.033138
##########                      Grid_es_energy:           -1.944271
##########           Internal_energy_repulsive:            5.208347

@<TRIPOS>MOLECULE
ZINC001041713551
 48 49 1 0 0
SMALL
USER_CHARGES


@<TRIPOS>ATOM
      1 C1         -6.7649    0.6273   66.9037 C.3     1  ZINC001041713551   -0.1500
      2 C2         -8.1266    0.0355   66.5341 C.3     1  ZINC001041713551   -0.1100
      3 C3         -8.3882    0.2506   65.0421 C.3     1  ZINC001041713551   -0.1000
      4 S4         -8.7539    2.0012   64.7385 S.3     1  ZINC001041713551   -0.1800
      5 C5         -8.7453    2.1120   62.9280 C.3     1  ZINC001041713551   -0.1300
      6 C6         -9.5813    0.9980   62.3526 C.2     1  ZINC001041713551    0.5300
      7 O7        -10.7550    0.9077   62.6446 O.2     1  ZINC001041713551   -0.5100
      8 N8         -9.0247    0.1020   61.5135 N.am    1  ZINC001041713551   -0.7300
      9 C9         -9.8379   -0.9800   60.9529 C.3     1  ZINC001041713551    0.1000
     10 C10        -9.3460   -1.3091   59.5420 C.3     1  ZINC001041713551    0.0900
     11 O11        -7.9236   -1.4193   59.4595 O.3     1  ZINC001041713551   -0.5200
     12 C12       -10.1000   -2.4763   58.8793 C.3     1  ZINC001041713551    0.0900
     13 N13       -10.0849   -1.6572   57.6518 N.am    1  ZINC001041713551   -0.6400
     14 C14       -10.1542   -1.9295   56.3336 C.2     1  ZINC001041713551    0.5500
     15 O15       -10.2551   -3.0777   55.9561 O.2     1  ZINC001041713551   -0.5100
     16 C16       -10.1064   -0.8074   55.3288 C.3     1  ZINC001041713551    0.0800
     17 H17        -9.4284   -0.0310   55.6830 H       1  ZINC001041713551    0.0800
     18 C18       -11.5089   -0.2193   55.1533 C.3     1  ZINC001041713551   -0.1500
     19 C19       -11.4636    0.8796   54.0871 C.3     1  ZINC001041713551   -0.1200
     20 C20       -10.9133    0.2898   52.7849 C.3     1  ZINC001041713551   -0.1600
     21 C21        -9.5339   -0.3180   53.0519 C.3     1  ZINC001041713551    0.0600
     22 O22        -9.6416   -1.3103   54.0746 O.3     1  ZINC001041713551   -0.3600
     23 C23        -9.9634   -0.4201   58.4473 C.3     1  ZINC001041713551    0.1200
     24 H24        -6.7611    1.6949   66.6843 H       1  ZINC001041713551    0.0600
     25 H25        -6.5786    0.4739   67.9666 H       1  ZINC001041713551    0.0600
     26 H26        -5.9849    0.1343   66.3233 H       1  ZINC001041713551    0.0600
     27 H27        -8.1304   -1.0323   66.7534 H       1  ZINC001041713551    0.0700
     28 H28        -8.9065    0.5284   67.1144 H       1  ZINC001041713551    0.0700
     29 H29        -7.5053   -0.0402   64.4727 H       1  ZINC001041713551    0.0800
     30 H30        -9.2377   -0.3573   64.7308 H       1  ZINC001041713551    0.0800
     31 H31        -9.1590    3.0726   62.6209 H       1  ZINC001041713551    0.1100
     32 H32        -7.7219    2.0238   62.5634 H       1  ZINC001041713551    0.1100
     33 H33        -8.0858    0.1735   61.2810 H       1  ZINC001041713551    0.4000
     34 H34        -9.7505   -1.8645   61.5838 H       1  ZINC001041713551    0.0900
     35 H35       -10.8808   -0.6659   60.9100 H       1  ZINC001041713551    0.0900
     36 H36        -7.5164   -1.8390   60.2296 H       1  ZINC001041713551    0.3800
     37 H37        -9.5133   -3.3919   58.8038 H       1  ZINC001041713551    0.0900
     38 H38       -11.0981   -2.6414   59.2850 H       1  ZINC001041713551    0.1000
     39 H39       -12.1964   -1.0043   54.8381 H       1  ZINC001041713551    0.0800
     40 H40       -11.8473    0.2044   56.0989 H       1  ZINC001041713551    0.0800
     41 H41       -12.4691    1.2643   53.9168 H       1  ZINC001041713551    0.0700
     42 H42       -10.8147    1.6880   54.4240 H       1  ZINC001041713551    0.0700
     43 H43       -11.5887   -0.4850   52.4219 H       1  ZINC001041713551    0.0700
     44 H44       -10.8257    1.0776   52.0366 H       1  ZINC001041713551    0.0800
     45 H45        -9.1559   -0.7771   52.1383 H       1  ZINC001041713551    0.1000
     46 H46        -8.8482    0.4649   53.3760 H       1  ZINC001041713551    0.0500
     47 H47       -10.9214    0.0188   58.7261 H       1  ZINC001041713551    0.1100
     48 H48        -9.2676    0.3060   58.0269 H       1  ZINC001041713551    0.1000
@<TRIPOS>BOND
     1     1     2    1
     2     1    24    1
     3     1    25    1
     4     1    26    1
     5     2     3    1
     6     2    27    1
     7     2    28    1
     8     3     4    1
     9     3    29    1
    10     3    30    1
    11     4     5    1
    12     5     6    1
    13     5    31    1
    14     5    32    1
    15     6     7    2
    16     6     8   am
    17     8     9    1
    18     8    33    1
    19     9    10    1
    20     9    34    1
    21     9    35    1
    22    10    23    1
    23    10    11    1
    24    10    12    1
    25    11    36    1
    26    12    13    1
    27    12    37    1
    28    12    38    1
    29    13    14   am
    30    13    23    1
    31    14    15    2
    32    14    16    1
    33    16    17    1
    34    16    22    1
    35    16    18    1
    36    18    19    1
    37    18    39    1
    38    18    40    1
    39    19    20    1
    40    19    41    1
    41    19    42    1
    42    20    21    1
    43    20    43    1
    44    20    44    1
    45    21    22    1
    46    21    45    1
    47    21    46    1
    48    23    47    1
    49    23    48    1
@<TRIPOS>SUBSTRUCTURE
     1 ZINC001041713551        1 TEMP              0 ****  ****    0 ROOT


##########                                Name:    ZINC000750807956
##########                DOCK_Rotatable_Bonds:                  11
##########                         Heavy_Atoms:                  26
##########                    Molecular_Weight:             368.473
##########                DOCK_Rotatable_Bonds:                  11
##########                       Formal_Charge:        -8.12113e-07
##########                     HBond_Acceptors:                   7
##########                        HBond_Donors:                   1
##########                         Heavy_Atoms:                  26
##########                          Grid_Score:          -32.972603
##########                     Grid_vdw_energy:          -31.945316
##########                      Grid_es_energy:           -1.027288
##########           Internal_energy_repulsive:           77.670845

@<TRIPOS>MOLECULE
ZINC000750807956
 58 59 1 0 0
SMALL
USER_CHARGES


@<TRIPOS>ATOM
      1 C1        -14.4127   -2.5141   56.5948 C.3     1  ZINC000750807956   -0.1500
      2 C2        -13.1235   -3.2703   56.9222 C.3     1  ZINC000750807956    0.0700
      3 O3        -12.1132   -2.3312   57.3756 O.3     1  ZINC000750807956   -0.3600
      4 C4        -10.8527   -2.7848   57.4584 C.2     1  ZINC000750807956    0.4800
      5 O5        -10.5277   -3.7792   56.8538 O.2     1  ZINC000750807956   -0.4900
      6 C6         -9.8429   -2.0542   58.3054 C.3     1  ZINC000750807956    0.1600
      7 H7         -9.0106   -2.7190   58.5368 H       1  ZINC000750807956    0.1000
      8 C8        -10.5047   -1.5882   59.6060 C.3     1  ZINC000750807956   -0.1300
      9 C9         -9.5159   -0.7291   60.3975 C.3     1  ZINC000750807956   -0.1200
     10 C10        -9.1405    0.5068   59.5768 C.3     1  ZINC000750807956   -0.1400
     11 C11        -8.4632    0.0644   58.2758 C.3     1  ZINC000750807956    0.1100
     12 N12        -9.3466   -0.8791   57.5765 N.am    1  ZINC000750807956   -0.6100
     13 C13        -9.6987   -0.6675   56.2929 C.2     1  ZINC000750807956    0.5100
     14 O14       -10.4284   -1.4536   55.7267 O.2     1  ZINC000750807956   -0.5000
     15 C15        -9.1858    0.5459   55.5610 C.3     1  ZINC000750807956   -0.1400
     16 C16        -9.2875    0.3124   54.0523 C.3     1  ZINC000750807956    0.2100
     17 H17        -9.4721   -0.7445   53.8599 H       1  ZINC000750807956    0.1000
     18 N18        -8.0335    0.7139   53.4103 N.am    1  ZINC000750807956   -0.7000
     19 C19        -7.6315    0.1052   52.2770 C.2     1  ZINC000750807956    0.6600
     20 O20        -8.3101   -0.7757   51.7869 O.2     1  ZINC000750807956   -0.5600
     21 O21        -6.4782    0.4732   51.6879 O.3     1  ZINC000750807956   -0.3700
     22 C22        -6.3970    1.8350   51.1908 C.3     1  ZINC000750807956    0.1400
     23 C23        -5.8548    2.7484   52.2920 C.3     1  ZINC000750807956   -0.1800
     24 C24        -5.4601    1.8818   49.9821 C.3     1  ZINC000750807956   -0.1400
     25 C25        -7.7906    2.3099   50.7745 C.3     1  ZINC000750807956   -0.1800
     26 C26       -10.4401    1.1429   53.4843 C.3     1  ZINC000750807956   -0.1800
     27 C27       -11.1407    0.6148   52.2308 C.3     1  ZINC000750807956   -0.1700
     28 C28       -11.8498    0.5571   53.5854 C.3     1  ZINC000750807956   -0.1800
     29 H29       -14.2163   -1.7843   55.8093 H       1  ZINC000750807956    0.0600
     30 H30       -15.1710   -3.2191   56.2545 H       1  ZINC000750807956    0.0800
     31 H31       -14.7690   -2.0000   57.4876 H       1  ZINC000750807956    0.0700
     32 H32       -13.3199   -4.0001   57.7077 H       1  ZINC000750807956    0.0700
     33 H33       -12.7672   -3.7843   56.0295 H       1  ZINC000750807956    0.0600
     34 H34       -11.3919   -0.9997   59.3722 H       1  ZINC000750807956    0.0800
     35 H35       -10.7897   -2.4562   60.2006 H       1  ZINC000750807956    0.0800
     36 H36        -9.9759   -0.4166   61.3350 H       1  ZINC000750807956    0.0800
     37 H37        -8.6186   -1.3106   60.6096 H       1  ZINC000750807956    0.0700
     38 H38       -10.0405    1.0756   59.3432 H       1  ZINC000750807956    0.0700
     39 H39        -8.4544    1.1299   60.1504 H       1  ZINC000750807956    0.0800
     40 H40        -8.2832    0.9339   57.6437 H       1  ZINC000750807956    0.0900
     41 H41        -7.5168   -0.4256   58.5048 H       1  ZINC000750807956    0.0800
     42 H42        -9.7833    1.4152   55.8353 H       1  ZINC000750807956    0.1200
     43 H43        -8.1445    0.7205   55.8322 H       1  ZINC000750807956    0.1100
     44 H44        -7.4924    1.4179   53.8009 H       1  ZINC000750807956    0.4000
     45 H45        -4.8620    2.4101   52.5886 H       1  ZINC000750807956    0.0600
     46 H46        -5.7939    3.7707   51.9188 H       1  ZINC000750807956    0.0700
     47 H47        -6.5223    2.7151   53.1530 H       1  ZINC000750807956    0.0900
     48 H48        -5.8463    1.2311   49.1976 H       1  ZINC000750807956    0.0700
     49 H49        -5.3991    2.9041   49.6089 H       1  ZINC000750807956    0.0800
     50 H50        -4.4672    1.5435   50.2787 H       1  ZINC000750807956    0.0700
     51 H51        -8.4581    2.2766   51.6356 H       1  ZINC000750807956    0.0900
     52 H52        -7.7296    3.3322   50.4013 H       1  ZINC000750807956    0.0700
     53 H53        -8.1769    1.6593   49.9900 H       1  ZINC000750807956    0.0600
     54 H54       -10.3355    2.2232   53.5854 H       1  ZINC000750807956    0.1100
     55 H55       -11.4971    1.3476   51.5070 H       1  ZINC000750807956    0.0900
     56 H56       -10.7805   -0.3244   51.8109 H       1  ZINC000750807956    0.0900
     57 H57       -11.9562   -0.4201   54.0565 H       1  ZINC000750807956    0.1200
     58 H58       -12.6728    1.2520   53.7526 H       1  ZINC000750807956    0.0900
@<TRIPOS>BOND
     1     1     2    1
     2     1    29    1
     3     1    30    1
     4     1    31    1
     5     2     3    1
     6     2    32    1
     7     2    33    1
     8     3     4    1
     9     4     5    2
    10     4     6    1
    11     6     7    1
    12     6    12    1
    13     6     8    1
    14     8     9    1
    15     8    34    1
    16     8    35    1
    17     9    10    1
    18     9    36    1
    19     9    37    1
    20    10    11    1
    21    10    38    1
    22    10    39    1
    23    11    12    1
    24    11    40    1
    25    11    41    1
    26    12    13   am
    27    13    14    2
    28    13    15    1
    29    15    16    1
    30    15    42    1
    31    15    43    1
    32    16    17    1
    33    16    18    1
    34    16    26    1
    35    18    19   am
    36    18    44    1
    37    19    20    2
    38    19    21    1
    39    21    22    1
    40    22    23    1
    41    22    24    1
    42    22    25    1
    43    23    45    1
    44    23    46    1
    45    23    47    1
    46    24    48    1
    47    24    49    1
    48    24    50    1
    49    25    51    1
    50    25    52    1
    51    25    53    1
    52    26    28    1
    53    26    27    1
    54    26    54    1
    55    27    28    1
    56    27    55    1
    57    27    56    1
    58    28    57    1
    59    28    58    1
@<TRIPOS>SUBSTRUCTURE
     1 ZINC000750807956        1 TEMP              0 ****  ****    0 ROOT


##########                                Name:    ZINC000547864253
##########                DOCK_Rotatable_Bonds:                   6
##########                         Heavy_Atoms:                  30
##########                    Molecular_Weight:             422.548
##########                DOCK_Rotatable_Bonds:                   6
##########                       Formal_Charge:           0.0300002
##########                     HBond_Acceptors:                   6
##########                        HBond_Donors:                   2
##########                         Heavy_Atoms:                  30
##########                          Grid_Score:          -32.950165
##########                     Grid_vdw_energy:          -32.098137
##########                      Grid_es_energy:           -0.852027
##########           Internal_energy_repulsive:           21.586060

@<TRIPOS>MOLECULE
ZINC000547864253
 56 60 1 0 0
SMALL
USER_CHARGES


@<TRIPOS>ATOM
      1 O1        -11.9165    1.4236   55.6640 O.2     1  ZINC000547864253   -0.5300
      2 C2        -10.8830    0.8429   55.9198 C.2     1  ZINC000547864253    0.5400
      3 N3        -10.9188   -0.4117   56.4110 N.am    1  ZINC000547864253   -0.7200
      4 C4        -12.2062   -1.0716   56.6416 C.3     1  ZINC000547864253    0.1300
      5 C5        -11.9790   -2.3841   57.3943 C.3     1  ZINC000547864253    0.0200
      6 H6        -11.7445   -3.1753   56.6823 H       1  ZINC000547864253    0.0900
      7 C7        -10.8318   -2.2188   58.3574 C.2     1  ZINC000547864253   -0.1600
      8 C8         -9.8611   -3.1126   58.6040 C.2     1  ZINC000547864253    0.0600
      9 N9         -8.9938   -2.6140   59.5375 N.pl3   1  ZINC000547864253   -0.5900
     10 C10        -9.3954   -1.3549   59.9243 C.ar    1  ZINC000547864253    0.1000
     11 C11        -8.8888   -0.4220   60.8228 C.ar    1  ZINC000547864253   -0.1300
     12 C12        -9.5344    0.7830   60.9949 C.ar    1  ZINC000547864253   -0.1000
     13 C13       -10.6871    1.0769   60.2802 C.ar    1  ZINC000547864253   -0.1400
     14 C14       -11.2022    0.1748   59.3921 C.ar    1  ZINC000547864253   -0.0700
     15 C15       -10.5608   -1.0496   59.1974 C.ar    1  ZINC000547864253   -0.1000
     16 C16       -13.2267   -2.7483   58.1570 C.ar    1  ZINC000547864253   -0.0700
     17 C17       -13.3558   -2.3855   59.4846 C.ar    1  ZINC000547864253   -0.1100
     18 C18       -14.5002   -2.7196   60.1843 C.ar    1  ZINC000547864253   -0.1200
     19 C19       -15.5157   -3.4162   59.5562 C.ar    1  ZINC000547864253   -0.1200
     20 C20       -15.3870   -3.7782   58.2283 C.ar    1  ZINC000547864253   -0.1100
     21 C21       -14.2444   -3.4403   57.5275 C.ar    1  ZINC000547864253   -0.1200
     22 C22        -9.5586    1.5218   55.6826 C.3     1  ZINC000547864253   -0.1700
     23 H23        -8.9562    1.7010   56.5732 H       1  ZINC000547864253    0.1400
     24 C24        -9.4879    2.5599   54.5612 C.3     1  ZINC000547864253   -0.1300
     25 C25        -8.8189    1.1938   54.3829 C.3     1  ZINC000547864253   -0.1400
     26 C26        -7.2914    1.1461   54.4368 C.3     1  ZINC000547864253   -0.0700
     27 C27        -6.7140    1.5595   53.0814 C.3     1  ZINC000547864253   -0.6000
     28 S28        -7.2923    0.4020   51.8078 S.o2    1  ZINC000547864253    2.4200
     29 O29        -6.9222    0.9081   50.5326 O.2     1  ZINC000547864253   -0.9400
     30 O30        -6.8962   -0.9123   52.1753 O.2     1  ZINC000547864253   -0.9300
     31 C31        -9.0942    0.5371   51.9847 C.3     1  ZINC000547864253   -0.6000
     32 C32        -9.4848    0.2038   53.4263 C.3     1  ZINC000547864253   -0.0700
     33 H33       -10.0921   -0.8776   56.6119 H       1  ZINC000547864253    0.4000
     34 H34       -12.8479   -0.4194   57.2339 H       1  ZINC000547864253    0.0800
     35 H35       -12.6843   -1.2798   55.6844 H       1  ZINC000547864253    0.0700
     36 H36        -9.7773   -4.0820   58.1352 H       1  ZINC000547864253    0.1700
     37 H37        -8.2125   -3.0783   59.8764 H       1  ZINC000547864253    0.4200
     38 H38        -7.9925   -0.6416   61.3841 H       1  ZINC000547864253    0.1200
     39 H39        -9.1396    1.5060   61.6934 H       1  ZINC000547864253    0.1300
     40 H40       -11.1812    2.0260   60.4271 H       1  ZINC000547864253    0.1200
     41 H41       -12.0997    0.4104   58.8394 H       1  ZINC000547864253    0.1200
     42 H42       -12.5623   -1.8413   59.9754 H       1  ZINC000547864253    0.1200
     43 H43       -14.6007   -2.4368   61.2218 H       1  ZINC000547864253    0.1200
     44 H44       -16.4095   -3.6778   60.1031 H       1  ZINC000547864253    0.1200
     45 H45       -16.1803   -4.3226   57.7378 H       1  ZINC000547864253    0.1200
     46 H46       -14.1438   -3.7231   56.4901 H       1  ZINC000547864253    0.1200
     47 H47       -10.3992    2.7520   53.9949 H       1  ZINC000547864253    0.1100
     48 H48        -8.8386    3.4220   54.7138 H       1  ZINC000547864253    0.1100
     49 H49        -6.9341    1.8297   55.2070 H       1  ZINC000547864253    0.0900
     50 H50        -6.9684    0.1325   54.6746 H       1  ZINC000547864253    0.0900
     51 H51        -7.0478    2.5676   52.8357 H       1  ZINC000547864253    0.1400
     52 H52        -5.6252    1.5366   53.1270 H       1  ZINC000547864253    0.1400
     53 H53        -9.4081    1.5538   51.7481 H       1  ZINC000547864253    0.1400
     54 H54        -9.5804   -0.1624   51.3047 H       1  ZINC000547864253    0.1400
     55 H55        -9.1577   -0.8080   53.6658 H       1  ZINC000547864253    0.0900
     56 H56       -10.5676    0.2690   53.5328 H       1  ZINC000547864253    0.0900
@<TRIPOS>BOND
     1     1     2    2
     2     2     3   am
     3     2    22    1
     4     3     4    1
     5     3    33    1
     6     4     5    1
     7     4    34    1
     8     4    35    1
     9     5     6    1
    10     5     7    1
    11     5    16    1
    12     7    15    1
    13     7     8    2
    14     8     9    1
    15     8    36    1
    16     9    10    1
    17     9    37    1
    18    10    15   ar
    19    10    11   ar
    20    11    12   ar
    21    11    38    1
    22    12    13   ar
    23    12    39    1
    24    13    14   ar
    25    13    40    1
    26    14    15   ar
    27    14    41    1
    28    16    21   ar
    29    16    17   ar
    30    17    18   ar
    31    17    42    1
    32    18    19   ar
    33    18    43    1
    34    19    20   ar
    35    19    44    1
    36    20    21   ar
    37    20    45    1
    38    21    46    1
    39    22    23    1
    40    22    25    1
    41    22    24    1
    42    24    25    1
    43    24    47    1
    44    24    48    1
    45    25    32    1
    46    25    26    1
    47    26    27    1
    48    26    49    1
    49    26    50    1
    50    27    28    1
    51    27    51    1
    52    27    52    1
    53    28    29    2
    54    28    30    2
    55    28    31    1
    56    31    32    1
    57    31    53    1
    58    31    54    1
    59    32    55    1
    60    32    56    1
@<TRIPOS>SUBSTRUCTURE
     1 ZINC000547864253        1 TEMP              0 ****  ****    0 ROOT


##########                                Name:    ZINC000534890536
##########                DOCK_Rotatable_Bonds:                   6
##########                         Heavy_Atoms:                  30
##########                    Molecular_Weight:             411.476
##########                DOCK_Rotatable_Bonds:                   6
##########                       Formal_Charge:          0.00999957
##########                     HBond_Acceptors:                   7
##########                        HBond_Donors:                   1
##########                         Heavy_Atoms:                  30
##########                          Grid_Score:          -32.940750
##########                     Grid_vdw_energy:          -33.338135
##########                      Grid_es_energy:            0.397385
##########           Internal_energy_repulsive:           14.902161

@<TRIPOS>MOLECULE
ZINC000534890536
 56 59 1 0 0
SMALL
USER_CHARGES


@<TRIPOS>ATOM
      1 C1         -8.3528   -0.0569   63.3880 C.3     1  ZINC000534890536    0.0300
      2 O2         -7.8678    0.7883   62.3427 O.3     1  ZINC000534890536   -0.3200
      3 C3         -8.4022    0.6088   61.1062 C.ar    1  ZINC000534890536    0.1300
      4 C4         -8.0061    1.4211   60.0535 C.ar    1  ZINC000534890536   -0.2100
      5 C5         -8.5506    1.2363   58.7974 C.ar    1  ZINC000534890536   -0.0700
      6 C6         -9.4897    0.2432   58.5889 C.ar    1  ZINC000534890536   -0.1100
      7 C7        -10.0824    0.0442   57.2177 C.3     1  ZINC000534890536   -0.0600
      8 H8        -10.9958    0.6275   57.1007 H       1  ZINC000534890536    0.0900
      9 C9        -10.3429   -1.4594   56.9372 C.3     1  ZINC000534890536   -0.1200
     10 C10       -10.2664   -1.5421   55.3981 C.3     1  ZINC000534890536    0.1000
     11 N11        -9.4854   -0.3850   54.9370 N.am    1  ZINC000534890536   -0.6400
     12 C12        -9.2099   -0.0849   53.6522 C.2     1  ZINC000534890536    0.7300
     13 O13        -9.6205   -0.8007   52.7592 O.2     1  ZINC000534890536   -0.5700
     14 N14        -8.4794    1.0086   53.3573 N.am    1  ZINC000534890536   -0.7300
     15 C15        -8.1785    1.3338   51.9609 C.3     1  ZINC000534890536    0.1600
     16 H16        -8.4643    0.4965   51.3244 H       1  ZINC000534890536    0.1200
     17 C17        -8.9669    2.5790   51.5476 C.3     1  ZINC000534890536   -0.1300
     18 C18        -8.4365    3.0607   50.1919 C.3     1  ZINC000534890536   -0.1300
     19 C19        -7.0075    3.5721   50.3789 C.3     1  ZINC000534890536    0.1100
     20 N20        -6.2006    2.5847   51.0847 N.am    1  ZINC000534890536   -0.5600
     21 C21        -4.8070    2.6876   50.9908 C.ar    1  ZINC000534890536    0.1000
     22 C22        -4.1203    1.9700   50.0218 C.ar    1  ZINC000534890536   -0.0800
     23 C23        -2.7453    2.0738   49.9312 C.ar    1  ZINC000534890536   -0.1200
     24 C24        -2.0525    2.8911   50.8047 C.ar    1  ZINC000534890536   -0.0800
     25 C25        -2.7324    3.6084   51.7724 C.ar    1  ZINC000534890536   -0.1500
     26 C26        -4.1086    3.5138   51.8651 C.ar    1  ZINC000534890536    0.1100
     27 F27        -4.7730    4.2146   52.8100 F       1  ZINC000534890536   -0.1300
     28 C28        -6.7062    1.5916   51.8149 C.2     1  ZINC000534890536    0.5000
     29 O29        -5.9359    0.8533   52.3918 O.2     1  ZINC000534890536   -0.5100
     30 C30        -9.0549    0.3942   56.1125 C.3     1  ZINC000534890536    0.1300
     31 C31        -9.8858   -0.5679   59.6363 C.ar    1  ZINC000534890536   -0.0700
     32 C32        -9.3405   -0.3906   60.8932 C.ar    1  ZINC000534890536   -0.1500
     33 H33        -9.4258    0.0931   63.5081 H       1  ZINC000534890536    0.0600
     34 H34        -8.1579   -1.0986   63.1330 H       1  ZINC000534890536    0.0600
     35 H35        -7.8448    0.1902   64.3202 H       1  ZINC000534890536    0.1000
     36 H36        -7.2731    2.1973   60.2159 H       1  ZINC000534890536    0.1300
     37 H37        -8.2426    1.8683   57.9775 H       1  ZINC000534890536    0.1300
     38 H38        -9.5702   -2.0766   57.3955 H       1  ZINC000534890536    0.0800
     39 H39       -11.3317   -1.7519   57.2905 H       1  ZINC000534890536    0.0900
     40 H40        -9.7707   -2.4662   55.1008 H       1  ZINC000534890536    0.0700
     41 H41       -11.2700   -1.5046   54.9745 H       1  ZINC000534890536    0.0700
     42 H42        -8.1528    1.5804   54.0697 H       1  ZINC000534890536    0.4000
     43 H43       -10.0249    2.3315   51.4608 H       1  ZINC000534890536    0.0900
     44 H44        -8.8330    3.3626   52.2935 H       1  ZINC000534890536    0.0800
     45 H45        -8.4387    2.2326   49.4832 H       1  ZINC000534890536    0.0800
     46 H46        -9.0675    3.8670   49.8178 H       1  ZINC000534890536    0.1000
     47 H47        -6.5643    3.7683   49.4025 H       1  ZINC000534890536    0.0800
     48 H48        -7.0286    4.4978   50.9540 H       1  ZINC000534890536    0.0700
     49 H49        -4.6600    1.3305   49.3390 H       1  ZINC000534890536    0.1300
     50 H50        -2.2110    1.5153   49.1770 H       1  ZINC000534890536    0.1300
     51 H51        -0.9778    2.9694   50.7317 H       1  ZINC000534890536    0.1400
     52 H52        -2.1881    4.2461   52.4534 H       1  ZINC000534890536    0.1400
     53 H53        -9.0827    1.4612   55.8913 H       1  ZINC000534890536    0.0800
     54 H54        -8.0524    0.0956   56.4192 H       1  ZINC000534890536    0.0700
     55 H55       -10.6193   -1.3431   59.4709 H       1  ZINC000534890536    0.1300
     56 H56        -9.6501   -1.0244   61.7110 H       1  ZINC000534890536    0.1300
@<TRIPOS>BOND
     1     1     2    1
     2     1    33    1
     3     1    34    1
     4     1    35    1
     5     2     3    1
     6     3    32   ar
     7     3     4   ar
     8     4     5   ar
     9     4    36    1
    10     5     6   ar
    11     5    37    1
    12     6     7    1
    13     6    31   ar
    14     7     8    1
    15     7    30    1
    16     7     9    1
    17     9    10    1
    18     9    38    1
    19     9    39    1
    20    10    11    1
    21    10    40    1
    22    10    41    1
    23    11    12   am
    24    11    30    1
    25    12    13    2
    26    12    14   am
    27    14    15    1
    28    14    42    1
    29    15    16    1
    30    15    28    1
    31    15    17    1
    32    17    18    1
    33    17    43    1
    34    17    44    1
    35    18    19    1
    36    18    45    1
    37    18    46    1
    38    19    20    1
    39    19    47    1
    40    19    48    1
    41    20    21    1
    42    20    28   am
    43    21    26   ar
    44    21    22   ar
    45    22    23   ar
    46    22    49    1
    47    23    24   ar
    48    23    50    1
    49    24    25   ar
    50    24    51    1
    51    25    26   ar
    52    25    52    1
    53    26    27    1
    54    28    29    2
    55    30    53    1
    56    30    54    1
    57    31    32   ar
    58    31    55    1
    59    32    56    1
@<TRIPOS>SUBSTRUCTURE
     1 ZINC000534890536        1 TEMP              0 ****  ****    0 ROOT


##########                                Name:    ZINC001500042809
##########                DOCK_Rotatable_Bonds:                   9
##########                         Heavy_Atoms:                  24
##########                    Molecular_Weight:              346.45
##########                DOCK_Rotatable_Bonds:                   9
##########                       Formal_Charge:           0.0200001
##########                     HBond_Acceptors:                   6
##########                        HBond_Donors:                   2
##########                         Heavy_Atoms:                  24
##########                          Grid_Score:          -32.910179
##########                     Grid_vdw_energy:          -32.236645
##########                      Grid_es_energy:           -0.673534
##########           Internal_energy_repulsive:           24.022072

@<TRIPOS>MOLECULE
ZINC001500042809
 46 47 1 0 0
SMALL
USER_CHARGES


@<TRIPOS>ATOM
      1 C1         -9.7606   -3.1120   58.8395 C.3     1  ZINC001500042809    0.0200
      2 O2        -10.6375   -2.3170   58.0389 O.3     1  ZINC001500042809   -0.3100
      3 C3        -10.1064   -1.7385   56.9320 C.ar    1  ZINC001500042809    0.1600
      4 C4         -9.2036   -0.6898   57.0633 C.ar    1  ZINC001500042809   -0.1600
      5 C5         -8.6629   -0.0999   55.9426 C.ar    1  ZINC001500042809   -0.0200
      6 C6         -9.0228   -0.5573   54.6722 C.ar    1  ZINC001500042809   -0.1800
      7 C7         -8.4455    0.0722   53.4684 C.2     1  ZINC001500042809    0.5600
      8 O8         -9.1543    0.3180   52.5115 O.2     1  ZINC001500042809   -0.5300
      9 N9         -7.1327    0.3746   53.4298 N.am    1  ZINC001500042809   -0.7300
     10 C10        -6.5600    1.0010   52.2356 C.3     1  ZINC001500042809    0.1300
     11 C11        -6.7743    2.5145   52.3012 C.3     1  ZINC001500042809   -0.1200
     12 H12        -7.8276    2.7246   52.4868 H       1  ZINC001500042809    0.0900
     13 C13        -5.9299    3.1006   53.4344 C.3     1  ZINC001500042809   -0.1500
     14 C14        -6.3545    3.1469   50.9727 C.3     1  ZINC001500042809    0.1300
     15 N15        -5.1771    2.4491   50.4502 N.am    1  ZINC001500042809   -0.7300
     16 C16        -3.9504    2.9833   50.6116 C.2     1  ZINC001500042809    0.5900
     17 O17        -3.8205    4.0447   51.1927 O.2     1  ZINC001500042809   -0.5200
     18 C18        -2.7724    2.2860   50.0873 C.2     1  ZINC001500042809   -0.2800
     19 C19        -1.4744    2.5781   50.3987 C.2     1  ZINC001500042809   -0.0100
     20 C20        -1.0776    3.6817   51.3451 C.3     1  ZINC001500042809   -0.1100
     21 C21        -0.5664    1.7646   49.7632 C.2     1  ZINC001500042809   -0.1500
     22 C22        -1.1003    0.8380   48.9588 C.2     1  ZINC001500042809   -0.2200
     23 S23        -2.8037    0.9349   48.9626 S.3     1  ZINC001500042809    0.1900
     24 C24        -9.9347   -1.6082   54.5444 C.ar    1  ZINC001500042809   -0.0400
     25 C25       -10.4672   -2.1960   55.6701 C.ar    1  ZINC001500042809   -0.2200
     26 H26        -9.3661   -3.9329   58.2407 H       1  ZINC001500042809    0.0600
     27 H27        -8.9366   -2.4951   59.1981 H       1  ZINC001500042809    0.0600
     28 H28       -10.3102   -3.5144   59.6904 H       1  ZINC001500042809    0.1000
     29 H29        -8.9260   -0.3370   58.0456 H       1  ZINC001500042809    0.1400
     30 H30        -7.9620    0.7152   56.0455 H       1  ZINC001500042809    0.1400
     31 H31        -6.5670    0.1775   54.1927 H       1  ZINC001500042809    0.4000
     32 H32        -7.0491    0.6029   51.3465 H       1  ZINC001500042809    0.0800
     33 H33        -5.4923    0.7869   52.1896 H       1  ZINC001500042809    0.0800
     34 H34        -6.2289    2.6500   54.3808 H       1  ZINC001500042809    0.0600
     35 H35        -4.8765    2.8904   53.2487 H       1  ZINC001500042809    0.0600
     36 H36        -6.0825    4.1789   53.4811 H       1  ZINC001500042809    0.0600
     37 H37        -7.1725    3.0655   50.2570 H       1  ZINC001500042809    0.0800
     38 H38        -6.1134    4.1981   51.1308 H       1  ZINC001500042809    0.0800
     39 H39        -5.2804    1.6025   49.9881 H       1  ZINC001500042809    0.4000
     40 H40        -1.0222    3.2876   52.3599 H       1  ZINC001500042809    0.0800
     41 H41        -0.1039    4.0766   51.0550 H       1  ZINC001500042809    0.0700
     42 H42        -1.8197    4.4790   51.3050 H       1  ZINC001500042809    0.0900
     43 H43         0.4996    1.8663   49.9027 H       1  ZINC001500042809    0.1500
     44 H44        -0.5291    0.1218   48.3867 H       1  ZINC001500042809    0.1700
     45 H45       -10.2186   -1.9615   53.5641 H       1  ZINC001500042809    0.1300
     46 H46       -11.1696   -3.0104   55.5722 H       1  ZINC001500042809    0.1400
@<TRIPOS>BOND
     1     1     2    1
     2     1    26    1
     3     1    27    1
     4     1    28    1
     5     2     3    1
     6     3    25   ar
     7     3     4   ar
     8     4     5   ar
     9     4    29    1
    10     5     6   ar
    11     5    30    1
    12     6     7    1
    13     6    24   ar
    14     7     8    2
    15     7     9   am
    16     9    10    1
    17     9    31    1
    18    10    11    1
    19    10    32    1
    20    10    33    1
    21    11    12    1
    22    11    13    1
    23    11    14    1
    24    13    34    1
    25    13    35    1
    26    13    36    1
    27    14    15    1
    28    14    37    1
    29    14    38    1
    30    15    16   am
    31    15    39    1
    32    16    17    2
    33    16    18    1
    34    18    23    1
    35    18    19    2
    36    19    20    1
    37    19    21    1
    38    20    40    1
    39    20    41    1
    40    20    42    1
    41    21    22    2
    42    21    43    1
    43    22    23    1
    44    22    44    1
    45    24    25   ar
    46    24    45    1
    47    25    46    1
@<TRIPOS>SUBSTRUCTURE
     1 ZINC001500042809        1 TEMP              0 ****  ****    0 ROOT


##########                                Name:    ZINC000809503567
##########                DOCK_Rotatable_Bonds:                   9
##########                         Heavy_Atoms:                  26
##########                    Molecular_Weight:             353.378
##########                DOCK_Rotatable_Bonds:                   9
##########                       Formal_Charge:          -0.0200002
##########                     HBond_Acceptors:                   7
##########                        HBond_Donors:                   1
##########                         Heavy_Atoms:                  26
##########                          Grid_Score:          -32.901146
##########                     Grid_vdw_energy:          -31.870739
##########                      Grid_es_energy:           -1.030408
##########           Internal_energy_repulsive:           11.625922

@<TRIPOS>MOLECULE
ZINC000809503567
 45 46 1 0 0
SMALL
USER_CHARGES


@<TRIPOS>ATOM
      1 C1         -0.4836    4.2833   51.9733 C.3     1  ZINC000809503567    0.0200
      2 O2         -0.8447    3.4749   50.8516 O.3     1  ZINC000809503567   -0.3100
      3 C3         -2.1602    3.1750   50.7064 C.ar    1  ZINC000809503567    0.1900
      4 C4         -3.1223    3.9280   51.3610 C.ar    1  ZINC000809503567   -0.2100
      5 C5         -4.4611    3.6216   51.2124 C.ar    1  ZINC000809503567   -0.0200
      6 C6         -4.8527    2.5624   50.4110 C.ar    1  ZINC000809503567   -0.1500
      7 C7         -6.3165    2.2386   50.2579 C.3     1  ZINC000809503567    0.1700
      8 N8         -6.6852    1.1844   51.2061 N.am    1  ZINC000809503567   -0.7000
      9 C9         -7.8474    1.2641   51.8839 C.2     1  ZINC000809503567    0.5100
     10 O10        -8.5876    2.2097   51.7100 O.2     1  ZINC000809503567   -0.4900
     11 C11        -8.2244    0.1878   52.8498 C.2     1  ZINC000809503567    0.5100
     12 O12        -8.6129   -0.8864   52.4401 O.2     1  ZINC000809503567   -0.5000
     13 N13        -8.1327    0.4101   54.1759 N.am    1  ZINC000809503567   -0.4600
     14 C14        -7.6619    1.7061   54.6706 C.3     1  ZINC000809503567    0.0800
     15 O15        -8.4915   -0.6092   55.0911 O.3     1  ZINC000809503567   -0.1100
     16 C16        -9.8464   -0.5373   55.5395 C.3     1  ZINC000809503567    0.0800
     17 C17       -10.0498   -1.5009   56.6802 C.ar    1  ZINC000809503567   -0.0900
     18 C18        -9.5285   -1.2146   57.9280 C.ar    1  ZINC000809503567   -0.1000
     19 C19        -9.7150   -2.0985   58.9745 C.ar    1  ZINC000809503567   -0.1300
     20 C20       -10.4233   -3.2684   58.7731 C.ar    1  ZINC000809503567   -0.1100
     21 C21       -10.9454   -3.5543   57.5254 C.ar    1  ZINC000809503567   -0.1300
     22 C22       -10.7624   -2.6683   56.4801 C.ar    1  ZINC000809503567   -0.0800
     23 C23        -3.9093    1.8030   49.7521 C.ar    1  ZINC000809503567   -0.0100
     24 C24        -2.5525    2.1055   49.8890 C.ar    1  ZINC000809503567   -0.0600
     25 C25        -1.5674    1.3209   49.2075 C.1     1  ZINC000809503567    0.2600
     26 N26        -0.7859    0.6984   48.6669 N.1     1  ZINC000809503567   -0.4100
     27 H27        -0.7718    3.7764   52.8943 H       1  ZINC000809503567    0.0600
     28 H28         0.5940    4.4476   51.9710 H       1  ZINC000809503567    0.1100
     29 H29        -0.9976    5.2425   51.9104 H       1  ZINC000809503567    0.0600
     30 H30        -2.8249    4.7552   51.9884 H       1  ZINC000809503567    0.1400
     31 H31        -5.2069    4.2115   51.7246 H       1  ZINC000809503567    0.1400
     32 H32        -6.9090    3.1312   50.4586 H       1  ZINC000809503567    0.0900
     33 H33        -6.5084    1.8961   49.2411 H       1  ZINC000809503567    0.0900
     34 H34        -6.0929    0.4291   51.3460 H       1  ZINC000809503567    0.4100
     35 H35        -8.5120    2.3755   54.8019 H       1  ZINC000809503567    0.0800
     36 H36        -7.1570    1.5685   55.6268 H       1  ZINC000809503567    0.0800
     37 H37        -6.9664    2.1387   53.9515 H       1  ZINC000809503567    0.0900
     38 H38       -10.0641    0.4761   55.8767 H       1  ZINC000809503567    0.0700
     39 H39       -10.5150   -0.7989   54.7194 H       1  ZINC000809503567    0.0600
     40 H40        -8.9752   -0.3006   58.0854 H       1  ZINC000809503567    0.1200
     41 H41        -9.3072   -1.8752   59.9492 H       1  ZINC000809503567    0.1200
     42 H42       -10.5684   -3.9593   59.5903 H       1  ZINC000809503567    0.1200
     43 H43       -11.4984   -4.4685   57.3680 H       1  ZINC000809503567    0.1200
     44 H44       -11.1704   -2.8917   55.5053 H       1  ZINC000809503567    0.1300
     45 H45        -4.2191    0.9778   49.1281 H       1  ZINC000809503567    0.1400
@<TRIPOS>BOND
     1     1     2    1
     2     1    27    1
     3     1    28    1
     4     1    29    1
     5     2     3    1
     6     3    24   ar
     7     3     4   ar
     8     4     5   ar
     9     4    30    1
    10     5     6   ar
    11     5    31    1
    12     6     7    1
    13     6    23   ar
    14     7     8    1
    15     7    32    1
    16     7    33    1
    17     8     9   am
    18     8    34    1
    19     9    10    2
    20     9    11    1
    21    11    12    2
    22    11    13   am
    23    13    14    1
    24    13    15    1
    25    14    35    1
    26    14    36    1
    27    14    37    1
    28    15    16    1
    29    16    17    1
    30    16    38    1
    31    16    39    1
    32    17    22   ar
    33    17    18   ar
    34    18    19   ar
    35    18    40    1
    36    19    20   ar
    37    19    41    1
    38    20    21   ar
    39    20    42    1
    40    21    22   ar
    41    21    43    1
    42    22    44    1
    43    23    24   ar
    44    23    45    1
    45    24    25    1
    46    25    26    3
@<TRIPOS>SUBSTRUCTURE
     1 ZINC000809503567        1 TEMP              0 ****  ****    0 ROOT


##########                                Name:    ZINC000179496896
##########                DOCK_Rotatable_Bonds:                   8
##########                         Heavy_Atoms:                  27
##########                    Molecular_Weight:             396.504
##########                DOCK_Rotatable_Bonds:                   8
##########                       Formal_Charge:          0.00999944
##########                     HBond_Acceptors:                   8
##########                        HBond_Donors:                   1
##########                         Heavy_Atoms:                  27
##########                          Grid_Score:          -32.892967
##########                     Grid_vdw_energy:          -32.253998
##########                      Grid_es_energy:           -0.638968
##########           Internal_energy_repulsive:           21.931328

@<TRIPOS>MOLECULE
ZINC000179496896
 53 55 1 0 0
SMALL
USER_CHARGES


@<TRIPOS>ATOM
      1 C1         -6.5418   -0.2770   51.2681 C.3     1  ZINC000179496896   -0.1500
      2 C2         -6.3988    1.2110   51.5937 C.3     1  ZINC000179496896   -0.1100
      3 C3         -6.0563    1.9817   50.3171 C.3     1  ZINC000179496896   -0.1400
      4 C4         -7.7157    1.7362   52.1687 C.3     1  ZINC000179496896    0.1200
      5 N5         -7.9714    1.1002   53.4634 N.pl3   1  ZINC000179496896   -0.3300
      6 N6         -8.6207   -0.1239   53.6591 N.2     1  ZINC000179496896   -0.2700
      7 C7         -8.6698   -0.3764   54.9379 C.2     1  ZINC000179496896    0.0800
      8 C8         -8.0446    0.6922   55.6188 C.2     1  ZINC000179496896   -0.2500
      9 C9         -7.8745    0.8202   57.0776 C.2     1  ZINC000179496896    0.5900
     10 O10        -6.9231    1.4294   57.5277 O.2     1  ZINC000179496896   -0.5300
     11 N11        -8.7733    0.2621   57.9126 N.am    1  ZINC000179496896   -0.7100
     12 C12        -8.6032    0.3879   59.3623 C.3     1  ZINC000179496896    0.1300
     13 C13        -9.5877   -0.5424   60.0738 C.3     1  ZINC000179496896    0.0700
     14 H14       -10.5462   -0.5223   59.5551 H       1  ZINC000179496896    0.0900
     15 C15        -9.0353   -1.9692   60.0694 C.3     1  ZINC000179496896   -0.1900
     16 N16        -9.7717   -0.0928   61.4601 N.3     1  ZINC000179496896   -0.5300
     17 C17       -10.5873    1.1288   61.5139 C.3     1  ZINC000179496896    0.0600
     18 C18       -11.0877    1.3351   62.9487 C.3     1  ZINC000179496896   -0.0400
     19 C19        -9.9056    1.1904   63.8838 C.2     1  ZINC000179496896   -0.1700
     20 C20        -8.7277    0.6396   63.5288 C.2     1  ZINC000179496896   -0.1100
     21 C21        -7.7905    0.6175   64.5553 C.2     1  ZINC000179496896   -0.1200
     22 C22        -8.1925    1.1338   65.7134 C.2     1  ZINC000179496896   -0.2200
     23 S23        -9.8496    1.7010   65.5629 S.3     1  ZINC000179496896    0.1000
     24 C24        -8.4771    0.1000   62.1272 C.3     1  ZINC000179496896    0.1200
     25 C25        -7.6170    1.5906   54.6619 C.2     1  ZINC000179496896    0.0700
     26 C26        -6.8946    2.8884   54.9165 C.3     1  ZINC000179496896    0.3400
     27 F27        -5.8141    3.0015   54.0351 F       1  ZINC000179496896   -0.1500
     28 F28        -7.7735    3.9584   54.7166 F       1  ZINC000179496896   -0.2000
     29 H29        -5.6036   -0.6512   50.8584 H       1  ZINC000179496896    0.0600
     30 H30        -6.7858   -0.8260   52.1776 H       1  ZINC000179496896    0.0600
     31 H31        -7.3380   -0.4140   50.5364 H       1  ZINC000179496896    0.0600
     32 H32        -5.6025    1.3480   52.3254 H       1  ZINC000179496896    0.0800
     33 H33        -6.8526    1.8449   49.5854 H       1  ZINC000179496896    0.0600
     34 H34        -5.9544    3.0420   50.5490 H       1  ZINC000179496896    0.0600
     35 H35        -5.1181    1.6077   49.9074 H       1  ZINC000179496896    0.0700
     36 H36        -7.6494    2.8161   52.3012 H       1  ZINC000179496896    0.1000
     37 H37        -8.5302    1.5038   51.4825 H       1  ZINC000179496896    0.1000
     38 H38        -9.1112   -1.2491   55.3960 H       1  ZINC000179496896    0.2000
     39 H39        -9.5328   -0.2229   57.5536 H       1  ZINC000179496896    0.4100
     40 H40        -7.5837    0.1140   59.6335 H       1  ZINC000179496896    0.0700
     41 H41        -8.7949    1.4180   59.6625 H       1  ZINC000179496896    0.0700
     42 H42        -9.7366   -2.6319   60.5763 H       1  ZINC000179496896    0.0600
     43 H43        -8.8987   -2.3028   59.0407 H       1  ZINC000179496896    0.0700
     44 H44        -8.0768   -1.9893   60.5881 H       1  ZINC000179496896    0.0600
     45 H45        -9.9828    1.9842   61.2123 H       1  ZINC000179496896    0.0400
     46 H46       -11.4393    1.0281   60.8416 H       1  ZINC000179496896    0.0900
     47 H47       -11.5169    2.3319   63.0492 H       1  ZINC000179496896    0.0800
     48 H48       -11.8403    0.5837   63.1876 H       1  ZINC000179496896    0.0900
     49 H49        -6.8005    0.2075   64.4213 H       1  ZINC000179496896    0.1400
     50 H50        -7.5925    1.1952   66.6093 H       1  ZINC000179496896    0.1600
     51 H51        -7.9526   -0.8534   62.1906 H       1  ZINC000179496896    0.0900
     52 H52        -7.8772    0.8136   61.5624 H       1  ZINC000179496896    0.0500
     53 H53        -6.5291    2.9055   55.9433 H       1  ZINC000179496896    0.1300
@<TRIPOS>BOND
     1     1     2    1
     2     1    29    1
     3     1    30    1
     4     1    31    1
     5     2     3    1
     6     2     4    1
     7     2    32    1
     8     3    33    1
     9     3    34    1
    10     3    35    1
    11     4     5    1
    12     4    36    1
    13     4    37    1
    14     5    25    1
    15     5     6    1
    16     6     7    2
    17     7     8    1
    18     7    38    1
    19     8     9    1
    20     8    25    2
    21     9    10    2
    22     9    11   am
    23    11    12    1
    24    11    39    1
    25    12    13    1
    26    12    40    1
    27    12    41    1
    28    13    14    1
    29    13    15    1
    30    13    16    1
    31    15    42    1
    32    15    43    1
    33    15    44    1
    34    16    24    1
    35    16    17    1
    36    17    18    1
    37    17    45    1
    38    17    46    1
    39    18    19    1
    40    18    47    1
    41    18    48    1
    42    19    23    1
    43    19    20    2
    44    20    21    1
    45    20    24    1
    46    21    22    2
    47    21    49    1
    48    22    23    1
    49    22    50    1
    50    24    51    1
    51    24    52    1
    52    25    26    1
    53    26    27    1
    54    26    28    1
    55    26    53    1
@<TRIPOS>SUBSTRUCTURE
     1 ZINC000179496896        1 TEMP              0 ****  ****    0 ROOT


##########                                Name:    ZINC000045927156
##########                DOCK_Rotatable_Bonds:                   7
##########                         Heavy_Atoms:                  30
##########                    Molecular_Weight:             418.522
##########                DOCK_Rotatable_Bonds:                   7
##########                       Formal_Charge:           0.0200001
##########                     HBond_Acceptors:                   8
##########                        HBond_Donors:                   1
##########                         Heavy_Atoms:                  30
##########                          Grid_Score:          -32.879364
##########                     Grid_vdw_energy:          -32.945255
##########                      Grid_es_energy:            0.065892
##########           Internal_energy_repulsive:           16.045115

@<TRIPOS>MOLECULE
ZINC000045927156
 52 56 1 0 0
SMALL
USER_CHARGES


@<TRIPOS>ATOM
      1 O1         -7.6330    0.3235   58.1394 O.2     1  ZINC000045927156   -0.5800
      2 C2         -8.5857   -0.0375   57.4757 C.2     1  ZINC000045927156    0.7300
      3 N3         -8.9022    0.6157   56.3401 N.am    1  ZINC000045927156   -0.7400
      4 C4         -8.1019    1.7644   55.9084 C.3     1  ZINC000045927156    0.1700
      5 C5         -7.5602    1.5080   54.5257 C.ar    1  ZINC000045927156   -0.0700
      6 C6         -7.6547    0.2464   53.9694 C.ar    1  ZINC000045927156   -0.1000
      7 C7         -7.1578    0.0112   52.7009 C.ar    1  ZINC000045927156   -0.1100
      8 C8         -6.5670    1.0379   51.9888 C.ar    1  ZINC000045927156   -0.1100
      9 C9         -6.4733    2.3002   52.5449 C.ar    1  ZINC000045927156   -0.1000
     10 C10        -6.9738    2.5364   53.8113 C.ar    1  ZINC000045927156   -0.1000
     11 C11        -6.8718    3.9124   54.4175 C.3     1  ZINC000045927156    0.1700
     12 N12        -5.5904    4.0447   55.1151 N.pl3   1  ZINC000045927156   -0.3800
     13 C13        -5.3390    3.7470   56.4018 C.2     1  ZINC000045927156    0.2500
     14 N14        -4.0780    4.0029   56.6388 N.2     1  ZINC000045927156   -0.5400
     15 C15        -3.4946    4.4633   55.5329 C.2     1  ZINC000045927156    0.2000
     16 N16        -4.3790    4.5018   54.5710 N.2     1  ZINC000045927156   -0.3100
     17 N17        -9.3219   -1.0942   57.8729 N.am    1  ZINC000045927156   -0.6200
     18 C18       -10.4945   -1.6392   57.1648 C.3     1  ZINC000045927156    0.1000
     19 C19       -10.5827   -3.1166   57.6222 C.3     1  ZINC000045927156   -0.1300
     20 C20       -10.1569   -3.0078   59.1102 C.3     1  ZINC000045927156   -0.1200
     21 C21        -9.0849   -1.8984   59.0806 C.3     1  ZINC000045927156    0.2300
     22 H22        -8.0908   -2.3442   59.0459 H       1  ZINC000045927156    0.1000
     23 C23        -9.2136   -1.0284   60.3045 C.2     1  ZINC000045927156    0.0900
     24 N24        -8.3002   -0.8919   61.1896 N.2     1  ZINC000045927156   -0.4500
     25 C25        -8.5524   -0.0795   62.2337 C.ar    1  ZINC000045927156    0.0800
     26 C26        -7.7380    0.2488   63.3359 C.ar    1  ZINC000045927156   -0.0700
     27 C27        -8.1888    1.1029   64.2965 C.ar    1  ZINC000045927156   -0.1100
     28 C28        -9.4542    1.6654   64.2093 C.ar    1  ZINC000045927156   -0.1000
     29 C29       -10.2718    1.3628   63.1435 C.ar    1  ZINC000045927156   -0.0700
     30 C30        -9.8276    0.4913   62.1517 C.ar    1  ZINC000045927156   -0.1800
     31 S31       -10.5932   -0.0965   60.6791 S.3     1  ZINC000045927156    0.1200
     32 H32        -9.6598    0.3252   55.8086 H       1  ZINC000045927156    0.3900
     33 H33        -8.7264    2.6576   55.8942 H       1  ZINC000045927156    0.1000
     34 H34        -7.2736    1.9112   56.6016 H       1  ZINC000045927156    0.0700
     35 H35        -8.1164   -0.5559   54.5258 H       1  ZINC000045927156    0.1300
     36 H36        -7.2310   -0.9748   52.2665 H       1  ZINC000045927156    0.1300
     37 H37        -6.1782    0.8540   50.9981 H       1  ZINC000045927156    0.1300
     38 H38        -6.0113    3.1024   51.9886 H       1  ZINC000045927156    0.1300
     39 H39        -6.9354    4.6623   53.6291 H       1  ZINC000045927156    0.1100
     40 H40        -7.6877    4.0590   55.1252 H       1  ZINC000045927156    0.1000
     41 H41        -6.0534    3.3642   57.1154 H       1  ZINC000045927156    0.2200
     42 H42        -2.4581    4.7532   55.4443 H       1  ZINC000045927156    0.2200
     43 H43       -11.3963   -1.0986   57.4522 H       1  ZINC000045927156    0.0700
     44 H44       -10.3457   -1.5843   56.0863 H       1  ZINC000045927156    0.0800
     45 H45       -11.6019   -3.4928   57.5339 H       1  ZINC000045927156    0.0900
     46 H46        -9.8874   -3.7414   57.0615 H       1  ZINC000045927156    0.0800
     47 H47       -11.0025   -2.7157   59.7329 H       1  ZINC000045927156    0.0900
     48 H48        -9.7271   -3.9472   59.4579 H       1  ZINC000045927156    0.0900
     49 H49        -6.7502   -0.1799   63.4198 H       1  ZINC000045927156    0.1300
     50 H50        -7.5540    1.3449   65.1361 H       1  ZINC000045927156    0.1400
     51 H51        -9.7984    2.3410   64.9784 H       1  ZINC000045927156    0.1400
     52 H52       -11.2569    1.8004   63.0768 H       1  ZINC000045927156    0.1300
@<TRIPOS>BOND
     1     1     2    2
     2     2     3   am
     3     2    17   am
     4     3     4    1
     5     3    32    1
     6     4     5    1
     7     4    33    1
     8     4    34    1
     9     5    10   ar
    10     5     6   ar
    11     6     7   ar
    12     6    35    1
    13     7     8   ar
    14     7    36    1
    15     8     9   ar
    16     8    37    1
    17     9    10   ar
    18     9    38    1
    19    10    11    1
    20    11    12    1
    21    11    39    1
    22    11    40    1
    23    12    16    1
    24    12    13    1
    25    13    14    2
    26    13    41    1
    27    14    15    1
    28    15    16    2
    29    15    42    1
    30    17    21    1
    31    17    18    1
    32    18    19    1
    33    18    43    1
    34    18    44    1
    35    19    20    1
    36    19    45    1
    37    19    46    1
    38    20    21    1
    39    20    47    1
    40    20    48    1
    41    21    22    1
    42    21    23    1
    43    23    31    1
    44    23    24    2
    45    24    25    1
    46    25    30   ar
    47    25    26   ar
    48    26    27   ar
    49    26    49    1
    50    27    28   ar
    51    27    50    1
    52    28    29   ar
    53    28    51    1
    54    29    30   ar
    55    29    52    1
    56    30    31    1
@<TRIPOS>SUBSTRUCTURE
     1 ZINC000045927156        1 TEMP              0 ****  ****    0 ROOT


##########                                Name:    ZINC000027473870
##########                DOCK_Rotatable_Bonds:                  10
##########                         Heavy_Atoms:                  31
##########                    Molecular_Weight:             422.502
##########                DOCK_Rotatable_Bonds:                  10
##########                       Formal_Charge:        -7.45058e-08
##########                     HBond_Acceptors:                   7
##########                        HBond_Donors:                   1
##########                         Heavy_Atoms:                  31
##########                          Grid_Score:          -32.867290
##########                     Grid_vdw_energy:          -32.796791
##########                      Grid_es_energy:           -0.070499
##########           Internal_energy_repulsive:           16.161348

@<TRIPOS>MOLECULE
ZINC000027473870
 58 60 1 0 0
SMALL
USER_CHARGES


@<TRIPOS>ATOM
      1 C1         -6.6697   -0.1746   51.9751 C.3     1  ZINC000027473870   -0.1400
      2 C2         -6.7926    1.2040   52.6273 C.3     1  ZINC000027473870   -0.0800
      3 C3         -7.2650    2.2038   51.6035 C.2     1  ZINC000027473870    0.1700
      4 C4         -8.5674    2.6170   51.4045 C.2     1  ZINC000027473870   -0.2900
      5 C5         -9.7534    2.1633   52.1532 C.2     1  ZINC000027473870    0.6000
      6 O6        -10.4002    2.9585   52.8075 O.2     1  ZINC000027473870   -0.5400
      7 N7        -10.1209    0.8673   52.1126 N.am    1  ZINC000027473870   -0.7200
      8 C8        -11.2986    0.4161   52.8582 C.3     1  ZINC000027473870    0.1600
      9 C9        -10.8795   -0.0365   54.2332 C.ar    1  ZINC000027473870   -0.0900
     10 C10       -10.4185   -1.3271   54.4227 C.ar    1  ZINC000027473870   -0.1100
     11 C11       -10.0337   -1.7480   55.6789 C.ar    1  ZINC000027473870   -0.1100
     12 C12       -10.1101   -0.8683   56.7599 C.ar    1  ZINC000027473870   -0.1200
     13 C13        -9.6990   -1.3123   58.1090 C.2     1  ZINC000027473870    0.5600
     14 O14        -8.5339   -1.2333   58.4460 O.2     1  ZINC000027473870   -0.5300
     15 N15       -10.6163   -1.8047   58.9650 N.am    1  ZINC000027473870   -0.6100
     16 C16       -12.0205   -1.8998   58.5587 C.3     1  ZINC000027473870    0.1100
     17 C17       -12.7990   -0.7147   59.1333 C.3     1  ZINC000027473870   -0.1700
     18 C18       -10.2089   -2.2446   60.3017 C.3     1  ZINC000027473870    0.0900
     19 C19       -10.0835   -1.0292   61.2225 C.3     1  ZINC000027473870   -0.1800
     20 C20       -10.5756    0.4325   56.5618 C.ar    1  ZINC000027473870   -0.0700
     21 C21       -10.9523    0.8422   55.2994 C.ar    1  ZINC000027473870   -0.1000
     22 C22        -8.5506    3.5566   50.3490 C.2     1  ZINC000027473870    0.0900
     23 N23        -7.3165    3.6921   49.9475 N.2     1  ZINC000027473870   -0.2800
     24 N24        -6.4948    2.8626   50.7189 N.pl3   1  ZINC000027473870   -0.3100
     25 C25        -5.1051    2.7326   50.5857 C.ar    1  ZINC000027473870    0.1300
     26 C26        -4.2569    3.4694   51.4013 C.ar    1  ZINC000027473870   -0.0900
     27 C27        -2.8883    3.3398   51.2691 C.ar    1  ZINC000027473870   -0.1300
     28 C28        -2.3619    2.4756   50.3237 C.ar    1  ZINC000027473870    0.1100
     29 F29        -1.0229    2.3498   50.1959 F       1  ZINC000027473870   -0.1300
     30 C30        -3.2066    1.7398   49.5091 C.ar    1  ZINC000027473870   -0.1400
     31 C31        -4.5756    1.8629   49.6420 C.ar    1  ZINC000027473870   -0.0700
     32 H32        -6.2452   -0.8786   52.6907 H       1  ZINC000027473870    0.0700
     33 H33        -7.6566   -0.5201   51.6673 H       1  ZINC000027473870    0.0700
     34 H34        -6.0199   -0.1071   51.1026 H       1  ZINC000027473870    0.0500
     35 H35        -7.5102    1.1559   53.4463 H       1  ZINC000027473870    0.1200
     36 H36        -5.8206    1.5111   53.0135 H       1  ZINC000027473870    0.0800
     37 H37        -9.6056    0.2331   51.5898 H       1  ZINC000027473870    0.4000
     38 H38       -12.0091    1.2378   52.9470 H       1  ZINC000027473870    0.0800
     39 H39       -11.7671   -0.4139   52.3295 H       1  ZINC000027473870    0.0800
     40 H40       -10.3600   -2.0068   53.5855 H       1  ZINC000027473870    0.1300
     41 H41        -9.6747   -2.7559   55.8257 H       1  ZINC000027473870    0.1500
     42 H42       -12.0859   -1.8844   57.4707 H       1  ZINC000027473870    0.0800
     43 H43       -12.4453   -2.8305   58.9349 H       1  ZINC000027473870    0.0800
     44 H44       -13.8439   -0.7855   58.8310 H       1  ZINC000027473870    0.0700
     45 H45       -12.7338   -0.7302   60.2212 H       1  ZINC000027473870    0.0600
     46 H46       -12.3742    0.2159   58.7570 H       1  ZINC000027473870    0.0600
     47 H47       -10.9569   -2.9285   60.7027 H       1  ZINC000027473870    0.0800
     48 H48        -9.2472   -2.7539   60.2393 H       1  ZINC000027473870    0.0900
     49 H49        -9.5424   -1.3117   62.1255 H       1  ZINC000027473870    0.0700
     50 H50        -9.5409   -0.2370   60.7066 H       1  ZINC000027473870    0.0700
     51 H51       -11.0780   -0.6728   61.4913 H       1  ZINC000027473870    0.0600
     52 H52       -10.6374    1.1179   57.3942 H       1  ZINC000027473870    0.1300
     53 H53       -11.3124    1.8486   55.1446 H       1  ZINC000027473870    0.1300
     54 H54        -9.4093    4.0721   49.9449 H       1  ZINC000027473870    0.1900
     55 H55        -4.6669    4.1438   52.1386 H       1  ZINC000027473870    0.1500
     56 H56        -2.2282    3.9131   51.9032 H       1  ZINC000027473870    0.1500
     57 H57        -2.7941    1.0666   48.7721 H       1  ZINC000027473870    0.1500
     58 H58        -5.2339    1.2887   49.0069 H       1  ZINC000027473870    0.1400
@<TRIPOS>BOND
     1     1     2    1
     2     1    32    1
     3     1    33    1
     4     1    34    1
     5     2     3    1
     6     2    35    1
     7     2    36    1
     8     3    24    1
     9     3     4    2
    10     4     5    1
    11     4    22    1
    12     5     6    2
    13     5     7   am
    14     7     8    1
    15     7    37    1
    16     8     9    1
    17     8    38    1
    18     8    39    1
    19     9    21   ar
    20     9    10   ar
    21    10    11   ar
    22    10    40    1
    23    11    12   ar
    24    11    41    1
    25    12    13    1
    26    12    20   ar
    27    13    14    2
    28    13    15   am
    29    15    16    1
    30    15    18    1
    31    16    17    1
    32    16    42    1
    33    16    43    1
    34    17    44    1
    35    17    45    1
    36    17    46    1
    37    18    19    1
    38    18    47    1
    39    18    48    1
    40    19    49    1
    41    19    50    1
    42    19    51    1
    43    20    21   ar
    44    20    52    1
    45    21    53    1
    46    22    23    2
    47    22    54    1
    48    23    24    1
    49    24    25    1
    50    25    31   ar
    51    25    26   ar
    52    26    27   ar
    53    26    55    1
    54    27    28   ar
    55    27    56    1
    56    28    29    1
    57    28    30   ar
    58    30    31   ar
    59    30    57    1
    60    31    58    1
@<TRIPOS>SUBSTRUCTURE
     1 ZINC000027473870        1 TEMP              0 ****  ****    0 ROOT


##########                                Name:    ZINC000444811358
##########                DOCK_Rotatable_Bonds:                  11
##########                         Heavy_Atoms:                  27
##########                    Molecular_Weight:             374.455
##########                DOCK_Rotatable_Bonds:                  11
##########                       Formal_Charge:          0.00999966
##########                     HBond_Acceptors:                   6
##########                        HBond_Donors:                   2
##########                         Heavy_Atoms:                  27
##########                          Grid_Score:          -32.825794
##########                     Grid_vdw_energy:          -31.377232
##########                      Grid_es_energy:           -1.448562
##########           Internal_energy_repulsive:           18.553236

@<TRIPOS>MOLECULE
ZINC000444811358
 54 55 1 0 0
SMALL
USER_CHARGES


@<TRIPOS>ATOM
      1 C1        -15.4332   -4.1742   58.2980 C.3     1  ZINC000444811358   -0.1100
      2 C2        -14.2127   -3.2908   58.2679 C.ar    1  ZINC000444811358   -0.1300
      3 C3        -13.2300   -3.5040   57.3195 C.ar    1  ZINC000444811358   -0.0700
      4 C4        -12.1096   -2.6964   57.2893 C.ar    1  ZINC000444811358   -0.1500
      5 C5        -11.9700   -1.6686   58.2125 C.ar    1  ZINC000444811358    0.1700
      6 N6        -10.8361   -0.8494   58.1831 N.am    1  ZINC000444811358   -0.6800
      7 C7         -9.6150   -1.3811   58.3907 C.2     1  ZINC000444811358    0.5200
      8 O8         -9.4993   -2.5696   58.6030 O.2     1  ZINC000444811358   -0.5000
      9 C9         -8.3937   -0.4988   58.3591 C.3     1  ZINC000444811358    0.0200
     10 N10        -8.7583    0.8574   58.7901 N.3     1  ZINC000444811358   -0.5000
     11 C11        -8.0881    1.2074   60.0496 C.3     1  ZINC000444811358    0.0200
     12 C12        -8.8671    0.6123   61.2243 C.3     1  ZINC000444811358    0.1100
     13 H13        -9.9127    0.4897   60.9420 H       1  ZINC000444811358    0.1200
     14 O14        -8.3138   -0.6597   61.5672 O.3     1  ZINC000444811358   -0.5400
     15 C15        -8.7708    1.5517   62.4283 C.3     1  ZINC000444811358    0.0300
     16 O16        -9.5654    1.0370   63.4987 O.3     1  ZINC000444811358   -0.3000
     17 C17        -8.9484    0.8643   64.6972 C.ar    1  ZINC000444811358    0.1300
     18 C18        -7.7287    0.2066   64.7624 C.ar    1  ZINC000444811358   -0.2100
     19 C19        -7.1033    0.0327   65.9818 C.ar    1  ZINC000444811358   -0.0800
     20 C20        -7.6922    0.5133   67.1368 C.ar    1  ZINC000444811358   -0.1600
     21 C21        -8.9080    1.1688   67.0746 C.ar    1  ZINC000444811358   -0.0800
     22 C22        -9.5345    1.3506   65.8568 C.ar    1  ZINC000444811358   -0.1500
     23 C23        -8.4568    1.8418   57.7422 C.3     1  ZINC000444811358    0.0700
     24 C24        -9.2084    3.1424   58.0328 C.3     1  ZINC000444811358   -0.1400
     25 C25        -6.9519    2.1167   57.7184 C.3     1  ZINC000444811358   -0.1900
     26 C26       -12.9578   -1.4549   59.1647 C.ar    1  ZINC000444811358   -0.1500
     27 C27       -14.0801   -2.2631   59.1872 C.ar    1  ZINC000444811358    0.1200
     28 F28       -15.0423   -2.0567   60.1129 F       1  ZINC000444811358   -0.1300
     29 H29       -16.2064   -3.7474   57.6592 H       1  ZINC000444811358    0.0700
     30 H30       -15.1712   -5.1685   57.9365 H       1  ZINC000444811358    0.0700
     31 H31       -15.8050   -4.2455   59.3202 H       1  ZINC000444811358    0.0700
     32 H32       -13.3382   -4.3033   56.6012 H       1  ZINC000444811358    0.1400
     33 H33       -11.3424   -2.8646   56.5480 H       1  ZINC000444811358    0.1300
     34 H34       -10.9286    0.1011   58.0133 H       1  ZINC000444811358    0.4100
     35 H35        -7.6364   -0.9024   59.0311 H       1  ZINC000444811358    0.1300
     36 H36        -7.9973   -0.4633   57.3443 H       1  ZINC000444811358    0.0700
     37 H37        -7.0745    0.8065   60.0455 H       1  ZINC000444811358    0.0500
     38 H38        -8.0495    2.2920   60.1515 H       1  ZINC000444811358    0.1000
     39 H39        -7.3504   -0.6601   61.6505 H       1  ZINC000444811358    0.3700
     40 H40        -7.7319    1.6250   62.7497 H       1  ZINC000444811358    0.0600
     41 H41        -9.1350    2.5401   62.1480 H       1  ZINC000444811358    0.0700
     42 H42        -7.2686   -0.1696   63.8606 H       1  ZINC000444811358    0.1300
     43 H43        -6.1538   -0.4792   66.0332 H       1  ZINC000444811358    0.1200
     44 H44        -7.2019    0.3761   68.0892 H       1  ZINC000444811358    0.1200
     45 H45        -9.3661    1.5430   67.9782 H       1  ZINC000444811358    0.1300
     46 H46       -10.4841    1.8627   65.8087 H       1  ZINC000444811358    0.1300
     47 H47        -8.7699    1.4496   56.7745 H       1  ZINC000444811358    0.0900
     48 H48        -8.8021    3.6034   58.9332 H       1  ZINC000444811358    0.0500
     49 H49        -9.0921    3.8250   57.1910 H       1  ZINC000444811358    0.0600
     50 H50       -10.2662    2.9255   58.1812 H       1  ZINC000444811358    0.0700
     51 H51        -6.4165    1.1901   57.5114 H       1  ZINC000444811358    0.0500
     52 H52        -6.7283    2.8471   56.9408 H       1  ZINC000444811358    0.0700
     53 H53        -6.6388    2.5088   58.6860 H       1  ZINC000444811358    0.0600
     54 H54       -12.8518   -0.6565   59.8842 H       1  ZINC000444811358    0.1500
@<TRIPOS>BOND
     1     1     2    1
     2     1    29    1
     3     1    30    1
     4     1    31    1
     5     2    27   ar
     6     2     3   ar
     7     3     4   ar
     8     3    32    1
     9     4     5   ar
    10     4    33    1
    11     5     6    1
    12     5    26   ar
    13     6     7   am
    14     6    34    1
    15     7     8    2
    16     7     9    1
    17     9    10    1
    18     9    35    1
    19     9    36    1
    20    10    11    1
    21    10    23    1
    22    11    12    1
    23    11    37    1
    24    11    38    1
    25    12    13    1
    26    12    14    1
    27    12    15    1
    28    14    39    1
    29    15    16    1
    30    15    40    1
    31    15    41    1
    32    16    17    1
    33    17    22   ar
    34    17    18   ar
    35    18    19   ar
    36    18    42    1
    37    19    20   ar
    38    19    43    1
    39    20    21   ar
    40    20    44    1
    41    21    22   ar
    42    21    45    1
    43    22    46    1
    44    23    24    1
    45    23    25    1
    46    23    47    1
    47    24    48    1
    48    24    49    1
    49    24    50    1
    50    25    51    1
    51    25    52    1
    52    25    53    1
    53    26    27   ar
    54    26    54    1
    55    27    28    1
@<TRIPOS>SUBSTRUCTURE
     1 ZINC000444811358        1 TEMP              0 ****  ****    0 ROOT


##########                                Name:    ZINC001284642199
##########                DOCK_Rotatable_Bonds:                   8
##########                         Heavy_Atoms:                  25
##########                    Molecular_Weight:             346.516
##########                DOCK_Rotatable_Bonds:                   8
##########                       Formal_Charge:         -3.8743e-07
##########                     HBond_Acceptors:                   5
##########                        HBond_Donors:                   2
##########                         Heavy_Atoms:                  25
##########                          Grid_Score:          -32.825478
##########                     Grid_vdw_energy:          -32.011444
##########                      Grid_es_energy:           -0.814032
##########           Internal_energy_repulsive:           21.024015

@<TRIPOS>MOLECULE
ZINC001284642199
 59 60 1 0 0
SMALL
USER_CHARGES


@<TRIPOS>ATOM
      1 C1         -8.4904   -0.3454   61.6298 C.3     1  ZINC001284642199   -0.1100
      2 C2         -9.0695   -1.1682   60.5079 C.ar    1  ZINC001284642199   -0.1900
      3 C3         -8.3198   -2.1598   59.8948 C.ar    1  ZINC001284642199    0.1500
      4 N4         -8.8619   -2.8625   58.9132 N.ar    1  ZINC001284642199   -0.4900
      5 C5        -10.0973   -2.6288   58.5179 C.ar    1  ZINC001284642199    0.3100
      6 C6        -10.6764   -3.4518   57.3960 C.3     1  ZINC001284642199    0.1300
      7 N7        -10.3300   -2.8363   56.1080 N.3     1  ZINC001284642199   -0.6800
      8 C8        -11.3553   -1.8691   55.6941 C.3     1  ZINC001284642199    0.0500
      9 C9        -10.8138   -0.4481   55.8630 C.3     1  ZINC001284642199    0.1600
     10 H10       -10.2720   -0.3755   56.8061 H       1  ZINC001284642199    0.1000
     11 N11        -9.9085   -0.1355   54.7544 N.am    1  ZINC001284642199   -0.7200
     12 C12        -8.6313    0.2138   55.0054 C.2     1  ZINC001284642199    0.5200
     13 O13        -8.2308    0.2679   56.1489 O.2     1  ZINC001284642199   -0.5300
     14 C14        -7.7005    0.5371   53.8650 C.3     1  ZINC001284642199   -0.1100
     15 H15        -6.6882    0.2259   54.1230 H       1  ZINC001284642199    0.0900
     16 C16        -8.1575   -0.2053   52.6077 C.3     1  ZINC001284642199   -0.1000
     17 C17        -7.2126    0.1229   51.4500 C.3     1  ZINC001284642199   -0.1100
     18 C18        -7.2317    1.6301   51.1876 C.3     1  ZINC001284642199   -0.0900
     19 H19        -8.2441    1.9412   50.9296 H       1  ZINC001284642199    0.0700
     20 C20        -6.2867    1.9583   50.0299 C.3     1  ZINC001284642199   -0.1500
     21 C21        -6.7748    2.3725   52.4449 C.3     1  ZINC001284642199   -0.1100
     22 C22        -7.7197    2.0443   53.6026 C.3     1  ZINC001284642199   -0.1100
     23 C23       -11.9782    0.5444   55.8660 C.3     1  ZINC001284642199   -0.0800
     24 C24       -12.8923    0.2617   54.6721 C.3     1  ZINC001284642199   -0.1400
     25 C25       -12.7734    0.3936   57.1643 C.3     1  ZINC001284642199   -0.1400
     26 C26       -11.4330    1.9704   55.7645 C.3     1  ZINC001284642199   -0.1300
     27 N27       -10.8379   -1.6912   59.0740 N.ar    1  ZINC001284642199   -0.5100
     28 C28       -10.3648   -0.9520   60.0646 C.ar    1  ZINC001284642199    0.1500
     29 H29        -8.0026    0.5381   61.2179 H       1  ZINC001284642199    0.0800
     30 H30        -9.2892   -0.0380   62.3046 H       1  ZINC001284642199    0.0700
     31 H31        -7.7606   -0.9410   62.1780 H       1  ZINC001284642199    0.0700
     32 H32        -7.3069   -2.3560   60.2137 H       1  ZINC001284642199    0.1700
     33 H33       -11.7607   -3.4940   57.4986 H       1  ZINC001284642199    0.1000
     34 H34       -10.2678   -4.4614   57.4379 H       1  ZINC001284642199    0.0600
     35 H35       -10.1882   -3.5390   55.3979 H       1  ZINC001284642199    0.3400
     36 H36       -12.2442   -1.9951   56.3122 H       1  ZINC001284642199    0.0900
     37 H37       -11.6129   -2.0378   54.6485 H       1  ZINC001284642199    0.0400
     38 H38       -10.2284   -0.1800   53.8397 H       1  ZINC001284642199    0.3900
     39 H39        -9.1698    0.1058   52.3498 H       1  ZINC001284642199    0.0700
     40 H40        -8.1439   -1.2791   52.7945 H       1  ZINC001284642199    0.0700
     41 H41        -7.5381   -0.4060   50.5542 H       1  ZINC001284642199    0.0700
     42 H42        -6.2002   -0.1882   51.7078 H       1  ZINC001284642199    0.0600
     43 H43        -6.6123    1.4295   49.1341 H       1  ZINC001284642199    0.0500
     44 H44        -6.3004    3.0321   49.8429 H       1  ZINC001284642199    0.0500
     45 H45        -5.2745    1.6473   50.2878 H       1  ZINC001284642199    0.0500
     46 H46        -5.7625    2.0614   52.7029 H       1  ZINC001284642199    0.0600
     47 H47        -6.7884    3.4462   52.2581 H       1  ZINC001284642199    0.0700
     48 H48        -8.7320    2.3554   53.3447 H       1  ZINC001284642199    0.0700
     49 H49        -7.3942    2.5731   54.4984 H       1  ZINC001284642199    0.0600
     50 H50       -13.2807   -0.7542   54.7445 H       1  ZINC001284642199    0.0600
     51 H51       -13.7219    0.9688   54.6742 H       1  ZINC001284642199    0.0600
     52 H52       -12.3257    0.3692   53.7472 H       1  ZINC001284642199    0.0500
     53 H53       -12.1223    0.5951   58.0148 H       1  ZINC001284642199    0.0600
     54 H54       -13.6030    1.1007   57.1664 H       1  ZINC001284642199    0.0600
     55 H55       -13.1619   -0.6222   57.2366 H       1  ZINC001284642199    0.0600
     56 H56       -10.8665    2.0778   54.8396 H       1  ZINC001284642199    0.0500
     57 H57       -12.2626    2.6775   55.7666 H       1  ZINC001284642199    0.0500
     58 H58       -10.7818    2.1718   56.6150 H       1  ZINC001284642199    0.0600
     59 H59       -10.9782   -0.1878   60.5185 H       1  ZINC001284642199    0.1700
@<TRIPOS>BOND
     1     1     2    1
     2     1    29    1
     3     1    30    1
     4     1    31    1
     5     2    28   ar
     6     2     3   ar
     7     3     4   ar
     8     3    32    1
     9     4     5   ar
    10     5     6    1
    11     5    27   ar
    12     6     7    1
    13     6    33    1
    14     6    34    1
    15     7     8    1
    16     7    35    1
    17     8     9    1
    18     8    36    1
    19     8    37    1
    20     9    10    1
    21     9    11    1
    22     9    23    1
    23    11    12   am
    24    11    38    1
    25    12    13    2
    26    12    14    1
    27    14    15    1
    28    14    22    1
    29    14    16    1
    30    16    17    1
    31    16    39    1
    32    16    40    1
    33    17    18    1
    34    17    41    1
    35    17    42    1
    36    18    19    1
    37    18    20    1
    38    18    21    1
    39    20    43    1
    40    20    44    1
    41    20    45    1
    42    21    22    1
    43    21    46    1
    44    21    47    1
    45    22    48    1
    46    22    49    1
    47    23    24    1
    48    23    25    1
    49    23    26    1
    50    24    50    1
    51    24    51    1
    52    24    52    1
    53    25    53    1
    54    25    54    1
    55    25    55    1
    56    26    56    1
    57    26    57    1
    58    26    58    1
    59    27    28   ar
    60    28    59    1
@<TRIPOS>SUBSTRUCTURE
     1 ZINC001284642199        1 TEMP              0 ****  ****    0 ROOT


##########                                Name:    ZINC000279452407
##########                DOCK_Rotatable_Bonds:                   6
##########                         Heavy_Atoms:                  24
##########                    Molecular_Weight:              375.47
##########                DOCK_Rotatable_Bonds:                   6
##########                       Formal_Charge:          0.00999929
##########                     HBond_Acceptors:                  10
##########                        HBond_Donors:                   3
##########                         Heavy_Atoms:                  24
##########                          Grid_Score:          -32.815788
##########                     Grid_vdw_energy:          -30.887138
##########                      Grid_es_energy:           -1.928650
##########           Internal_energy_repulsive:           30.021338

@<TRIPOS>MOLECULE
ZINC000279452407
 45 47 1 0 0
SMALL
USER_CHARGES


@<TRIPOS>ATOM
      1 C1         -7.4425    0.4943   50.8567 C.3     1  ZINC000279452407   -0.1600
      2 C2         -6.6055    1.6005   50.2111 C.3     1  ZINC000279452407    0.0600
      3 H3         -6.9505    1.7804   49.1929 H       1  ZINC000279452407    0.0700
      4 O4         -5.2176    1.2205   50.1982 O.3     1  ZINC000279452407   -0.3700
      5 C5         -4.4475    2.4284   50.3820 C.3     1  ZINC000279452407    0.0500
      6 C6         -5.2605    3.2206   51.4390 C.3     1  ZINC000279452407   -0.1400
      7 C7         -6.7173    2.8905   51.0367 C.3     1  ZINC000279452407    0.0700
      8 C8         -7.5606    2.6495   52.2862 C.3     1  ZINC000279452407    0.1100
      9 N9         -8.9696    2.5160   51.8790 N.am    1  ZINC000279452407   -0.6300
     10 C10        -9.7228    1.4846   52.3096 C.2     1  ZINC000279452407    0.7200
     11 O11       -10.8841    1.3931   51.9617 O.2     1  ZINC000279452407   -0.5800
     12 N12        -9.1885    0.5545   53.1257 N.am    1  ZINC000279452407   -0.7500
     13 C13       -10.0072   -0.5665   53.5936 C.3     1  ZINC000279452407    0.2000
     14 C14        -9.8543   -0.7116   55.0859 C.2     1  ZINC000279452407   -0.1700
     15 C15       -10.7021   -1.3594   55.8864 C.2     1  ZINC000279452407   -0.1400
     16 C16       -10.3538   -1.3609   57.2260 C.2     1  ZINC000279452407    0.0100
     17 C17        -9.2231   -0.7144   57.5135 C.2     1  ZINC000279452407   -0.7900
     18 S18        -8.5291   -0.5489   59.1247 S.o2    1  ZINC000279452407    2.7300
     19 N19        -7.6174   -1.9022   59.4071 N.am    1  ZINC000279452407   -1.2500
     20 O20        -7.6198    0.5411   59.0598 O.2     1  ZINC000279452407   -0.9600
     21 O21        -9.6170   -0.6003   60.0373 O.2     1  ZINC000279452407   -0.9500
     22 S22        -8.5265   -0.0594   56.0372 S.3     1  ZINC000279452407    0.2500
     23 C23        -9.5295    3.5443   50.9875 C.3     1  ZINC000279452407    0.0700
     24 C24        -8.5921    3.7082   49.7857 C.3     1  ZINC000279452407    0.0400
     25 O25        -7.2618    3.9466   50.2551 O.3     1  ZINC000279452407   -0.3600
     26 H26        -8.4998    0.7481   50.7816 H       1  ZINC000279452407    0.0700
     27 H27        -7.2577   -0.4485   50.3420 H       1  ZINC000279452407    0.0600
     28 H28        -7.1662    0.3955   51.9065 H       1  ZINC000279452407    0.0800
     29 H29        -3.4520    2.1949   50.7597 H       1  ZINC000279452407    0.1000
     30 H30        -4.3833    2.9882   49.4490 H       1  ZINC000279452407    0.0700
     31 H31        -5.0424    2.8636   52.4457 H       1  ZINC000279452407    0.1000
     32 H32        -5.0683    4.2902   51.3566 H       1  ZINC000279452407    0.1000
     33 H33        -7.2332    1.7337   52.7782 H       1  ZINC000279452407    0.1200
     34 H34        -7.4548    3.4933   52.9680 H       1  ZINC000279452407    0.0800
     35 H35        -8.2619    0.6276   53.4033 H       1  ZINC000279452407    0.4000
     36 H36       -11.0533   -0.3782   53.3523 H       1  ZINC000279452407    0.1000
     37 H37        -9.6808   -1.4840   53.1040 H       1  ZINC000279452407    0.0900
     38 H38       -11.5932   -1.8454   55.5173 H       1  ZINC000279452407    0.1600
     39 H39       -10.9525   -1.8483   57.9814 H       1  ZINC000279452407    0.1600
     40 H40        -7.1483   -2.0038   60.2500 H       1  ZINC000279452407    0.4200
     41 H41        -7.5525   -2.5933   58.7295 H       1  ZINC000279452407    0.4200
     42 H42       -10.5157    3.2330   50.6431 H       1  ZINC000279452407    0.0900
     43 H43        -9.6072    4.4905   51.5231 H       1  ZINC000279452407    0.0900
     44 H44        -8.6086    2.7990   49.1847 H       1  ZINC000279452407    0.0600
     45 H45        -8.9212    4.5522   49.1797 H       1  ZINC000279452407    0.1100
@<TRIPOS>BOND
     1     1     2    1
     2     1    26    1
     3     1    27    1
     4     1    28    1
     5     2     3    1
     6     2     7    1
     7     2     4    1
     8     4     5    1
     9     5     6    1
    10     5    29    1
    11     5    30    1
    12     6     7    1
    13     6    31    1
    14     6    32    1
    15     7    25    1
    16     7     8    1
    17     8     9    1
    18     8    33    1
    19     8    34    1
    20     9    10   am
    21     9    23    1
    22    10    11    2
    23    10    12   am
    24    12    13    1
    25    12    35    1
    26    13    14    1
    27    13    36    1
    28    13    37    1
    29    14    22    1
    30    14    15    2
    31    15    16    1
    32    15    38    1
    33    16    17    2
    34    16    39    1
    35    17    18    1
    36    17    22    1
    37    18    19   am
    38    18    20    2
    39    18    21    2
    40    19    40    1
    41    19    41    1
    42    23    24    1
    43    23    42    1
    44    23    43    1
    45    24    25    1
    46    24    44    1
    47    24    45    1
@<TRIPOS>SUBSTRUCTURE
     1 ZINC000279452407        1 TEMP              0 ****  ****    0 ROOT


##########                                Name:    ZINC001000186632
##########                DOCK_Rotatable_Bonds:                   7
##########                         Heavy_Atoms:                  23
##########                    Molecular_Weight:             342.379
##########                DOCK_Rotatable_Bonds:                   7
##########                       Formal_Charge:          -0.0100001
##########                     HBond_Acceptors:                  11
##########                        HBond_Donors:                   2
##########                         Heavy_Atoms:                  23
##########                          Grid_Score:          -32.794044
##########                     Grid_vdw_energy:          -30.283297
##########                      Grid_es_energy:           -2.510747
##########           Internal_energy_repulsive:            4.237485

@<TRIPOS>MOLECULE
ZINC001000186632
 41 43 1 0 0
SMALL
USER_CHARGES


@<TRIPOS>ATOM
      1 O1         -8.9939    0.0819   65.5194 O.2     1  ZINC001000186632   -0.5200
      2 C2         -7.9351    0.4103   65.0276 C.2     1  ZINC001000186632    0.5300
      3 C3         -6.6610    0.2723   65.8205 C.3     1  ZINC001000186632   -0.0500
      4 C4         -6.4329    1.5249   66.6268 C.2     1  ZINC001000186632    0.2400
      5 N5         -5.2665    2.0092   66.9639 N.2     1  ZINC001000186632   -0.3000
      6 N6         -5.5109    3.1773   67.7045 N.pl3   1  ZINC001000186632   -0.4800
      7 C7         -6.8467    3.3166   67.7616 C.2     1  ZINC001000186632    0.2700
      8 N8         -7.3872    2.3213   67.1067 N.2     1  ZINC001000186632   -0.5400
      9 N9         -7.8970    0.8934   63.7699 N.am    1  ZINC001000186632   -0.7100
     10 C10        -9.1356    1.0276   62.9991 C.3     1  ZINC001000186632    0.1100
     11 C11        -8.9570    1.7727   61.6638 C.3     1  ZINC001000186632    0.1000
     12 N12        -8.7052    0.4446   61.0717 N.am    1  ZINC001000186632   -0.6500
     13 C13        -8.0407    0.0058   59.9842 C.2     1  ZINC001000186632    0.5100
     14 O14        -7.4829    0.7975   59.2540 O.2     1  ZINC001000186632   -0.5100
     15 C15        -7.9908   -1.4684   59.6756 C.3     1  ZINC001000186632    0.1500
     16 N16        -9.1735   -1.8447   58.8973 N.am    1  ZINC001000186632   -0.9800
     17 C17        -9.7276   -1.1145   57.7472 C.3     1  ZINC001000186632    0.0800
     18 C18       -10.4386   -2.0919   56.7919 C.3     1  ZINC001000186632   -0.1300
     19 C19       -11.2853   -2.9992   57.7306 C.3     1  ZINC001000186632   -0.6000
     20 S20       -10.1366   -3.1859   59.1482 S.o2    1  ZINC001000186632    2.5700
     21 O21        -9.2782   -4.3045   58.9717 O.2     1  ZINC001000186632   -0.9400
     22 O22       -10.7960   -2.9357   60.3818 O.2     1  ZINC001000186632   -0.9600
     23 C23        -9.4733   -0.2102   62.1483 C.3     1  ZINC001000186632    0.0900
     24 H24        -6.7418   -0.5824   66.4923 H       1  ZINC001000186632    0.1300
     25 H25        -5.8236    0.1211   65.1394 H       1  ZINC001000186632    0.1200
     26 H26        -4.8476    3.7663   68.0969 H       1  ZINC001000186632    0.4400
     27 H27        -7.3806    4.1133   68.2585 H       1  ZINC001000186632    0.2200
     28 H28        -7.0496    1.1523   63.3753 H       1  ZINC001000186632    0.4100
     29 H29        -9.9714    1.3901   63.5975 H       1  ZINC001000186632    0.1200
     30 H30        -9.8677    2.2497   61.3017 H       1  ZINC001000186632    0.1000
     31 H31        -8.0913    2.4345   61.6424 H       1  ZINC001000186632    0.0900
     32 H32        -7.0919   -1.6888   59.1000 H       1  ZINC001000186632    0.1100
     33 H33        -7.9737   -2.0342   60.6071 H       1  ZINC001000186632    0.1100
     34 H34       -10.4421   -0.3714   58.1012 H       1  ZINC001000186632    0.0800
     35 H35        -8.9197   -0.6124   57.2149 H       1  ZINC001000186632    0.0900
     36 H36       -11.0847   -1.5487   56.1024 H       1  ZINC001000186632    0.1100
     37 H37        -9.7088   -2.6872   56.2431 H       1  ZINC001000186632    0.1000
     38 H38       -12.2083   -2.5028   58.0303 H       1  ZINC001000186632    0.1400
     39 H39       -11.4922   -3.9628   57.2651 H       1  ZINC001000186632    0.1400
     40 H40        -9.0197   -1.1315   62.5138 H       1  ZINC001000186632    0.0900
     41 H41       -10.5357   -0.3157   61.9285 H       1  ZINC001000186632    0.1100
@<TRIPOS>BOND
     1     1     2    2
     2     2     3    1
     3     2     9   am
     4     3     4    1
     5     3    24    1
     6     3    25    1
     7     4     8    1
     8     4     5    2
     9     5     6    1
    10     6     7    1
    11     6    26    1
    12     7     8    2
    13     7    27    1
    14     9    10    1
    15     9    28    1
    16    10    23    1
    17    10    11    1
    18    10    29    1
    19    11    12    1
    20    11    30    1
    21    11    31    1
    22    12    13   am
    23    12    23    1
    24    13    14    2
    25    13    15    1
    26    15    16    1
    27    15    32    1
    28    15    33    1
    29    16    20   am
    30    16    17    1
    31    17    18    1
    32    17    34    1
    33    17    35    1
    34    18    19    1
    35    18    36    1
    36    18    37    1
    37    19    20    1
    38    19    38    1
    39    19    39    1
    40    20    21    2
    41    20    22    2
    42    23    40    1
    43    23    41    1
@<TRIPOS>SUBSTRUCTURE
     1 ZINC001000186632        1 TEMP              0 ****  ****    0 ROOT


##########                                Name:    ZINC001707804910
##########                DOCK_Rotatable_Bonds:                   4
##########                         Heavy_Atoms:                  26
##########                    Molecular_Weight:             358.403
##########                DOCK_Rotatable_Bonds:                   4
##########                       Formal_Charge:          -0.0399996
##########                     HBond_Acceptors:                  10
##########                        HBond_Donors:                   0
##########                         Heavy_Atoms:                  26
##########                          Grid_Score:          -32.792759
##########                     Grid_vdw_energy:          -32.228111
##########                      Grid_es_energy:           -0.564648
##########           Internal_energy_repulsive:            7.601865

@<TRIPOS>MOLECULE
ZINC001707804910
 48 51 1 0 0
SMALL
USER_CHARGES


@<TRIPOS>ATOM
      1 C1        -13.4212   -0.3834   61.0240 C.3     1  ZINC001707804910   -0.0700
      2 C2        -11.9966   -0.3935   60.5327 C.2     1  ZINC001707804910    0.0700
      3 N3        -10.9268   -0.2955   61.2796 N.2     1  ZINC001707804910   -0.2800
      4 N4         -9.8035   -0.3462   60.4441 N.pl3   1  ZINC001707804910   -0.3700
      5 C5         -8.4052   -0.2701   60.8743 C.3     1  ZINC001707804910    0.0900
      6 C6        -10.2370   -0.4778   59.1729 C.2     1  ZINC001707804910    0.0500
      7 C7         -9.3701   -0.5723   57.9438 C.3     1  ZINC001707804910    0.1800
      8 N8         -9.9041   -1.6005   57.0474 N.pl3   1  ZINC001707804910   -0.4600
      9 C9        -10.1639   -2.9079   57.3527 C.2     1  ZINC001707804910    0.1900
     10 C10        -9.9532   -3.5719   58.6890 C.3     1  ZINC001707804910   -0.0700
     11 N11       -10.6281   -3.4728   56.2743 N.2     1  ZINC001707804910   -0.2800
     12 N12       -10.6789   -2.6180   55.3158 N.2     1  ZINC001707804910   -0.3000
     13 C13       -10.2511   -1.4510   55.7362 C.2     1  ZINC001707804910    0.3500
     14 N14       -10.1605   -0.2883   54.9876 N.3     1  ZINC001707804910   -0.4600
     15 C15       -11.4048   -0.0419   54.2445 C.3     1  ZINC001707804910    0.0200
     16 C16       -11.2835    1.2793   53.4805 C.3     1  ZINC001707804910    0.0700
     17 O17       -10.1416    1.2241   52.6213 O.3     1  ZINC001707804910   -0.3600
     18 C18        -8.9122    0.9862   53.3121 C.3     1  ZINC001707804910    0.2000
     19 H19        -8.7267    1.7982   54.0152 H       1  ZINC001707804910    0.1000
     20 C20        -7.7821    0.9136   52.3178 C.2     1  ZINC001707804910    0.1600
     21 N21        -7.3144   -0.1668   51.7599 N.2     1  ZINC001707804910   -0.2500
     22 N22        -6.3524    0.1456   50.9646 N.2     1  ZINC001707804910   -0.2900
     23 C23        -6.1736    1.4357   50.9881 C.2     1  ZINC001707804910    0.1700
     24 C24        -5.1469    2.2084   50.2006 C.3     1  ZINC001707804910   -0.0600
     25 O25        -7.0758    1.9517   51.8397 O.3     1  ZINC001707804910   -0.2200
     26 C26        -9.0095   -0.3380   54.0744 C.3     1  ZINC001707804910    0.0400
     27 C27       -11.5894   -0.5151   59.2001 C.2     1  ZINC001707804910   -0.2300
     28 H28       -13.7367   -1.4032   61.2443 H       1  ZINC001707804910    0.0800
     29 H29       -13.4894    0.2214   61.9283 H       1  ZINC001707804910    0.0700
     30 H30       -14.0678    0.0389   60.2549 H       1  ZINC001707804910    0.0800
     31 H31        -8.0645   -1.2594   61.1799 H       1  ZINC001707804910    0.0800
     32 H32        -7.7898    0.0869   60.0484 H       1  ZINC001707804910    0.0900
     33 H33        -8.3206    0.4189   61.7147 H       1  ZINC001707804910    0.0900
     34 H34        -9.3621    0.3891   57.4302 H       1  ZINC001707804910    0.1100
     35 H35        -8.3537   -0.8368   58.2356 H       1  ZINC001707804910    0.1200
     36 H36       -10.8173   -3.3866   59.3271 H       1  ZINC001707804910    0.0900
     37 H37        -9.8307   -4.6454   58.5460 H       1  ZINC001707804910    0.1000
     38 H38        -9.0592   -3.1638   59.1606 H       1  ZINC001707804910    0.0700
     39 H39       -11.5750   -0.8557   53.5396 H       1  ZINC001707804910    0.0700
     40 H40       -12.2401    0.0165   54.9424 H       1  ZINC001707804910    0.0900
     41 H41       -12.1813    1.4379   52.8830 H       1  ZINC001707804910    0.1200
     42 H42       -11.1671    2.0998   54.1885 H       1  ZINC001707804910    0.0700
     43 H43        -5.5709    2.5014   49.2401 H       1  ZINC001707804910    0.1000
     44 H44        -4.8574    3.0997   50.7572 H       1  ZINC001707804910    0.1000
     45 H45        -4.2699    1.5827   50.0349 H       1  ZINC001707804910    0.1100
     46 H46        -8.0962   -0.4955   54.6482 H       1  ZINC001707804910    0.1000
     47 H47        -9.1413   -1.1565   53.3668 H       1  ZINC001707804910    0.0800
     48 H48       -12.2396   -0.6148   58.3436 H       1  ZINC001707804910    0.1500
@<TRIPOS>BOND
     1     1     2    1
     2     1    28    1
     3     1    29    1
     4     1    30    1
     5     2    27    1
     6     2     3    2
     7     3     4    1
     8     4     5    1
     9     4     6    1
    10     5    31    1
    11     5    32    1
    12     5    33    1
    13     6     7    1
    14     6    27    2
    15     7     8    1
    16     7    34    1
    17     7    35    1
    18     8    13    1
    19     8     9    1
    20     9    10    1
    21     9    11    2
    22    10    36    1
    23    10    37    1
    24    10    38    1
    25    11    12    1
    26    12    13    2
    27    13    14    1
    28    14    26    1
    29    14    15    1
    30    15    16    1
    31    15    39    1
    32    15    40    1
    33    16    17    1
    34    16    41    1
    35    16    42    1
    36    17    18    1
    37    18    19    1
    38    18    20    1
    39    18    26    1
    40    20    25    1
    41    20    21    2
    42    21    22    1
    43    22    23    2
    44    23    24    1
    45    23    25    1
    46    24    43    1
    47    24    44    1
    48    24    45    1
    49    26    46    1
    50    26    47    1
    51    27    48    1
@<TRIPOS>SUBSTRUCTURE
     1 ZINC001707804910        1 TEMP              0 ****  ****    0 ROOT


##########                                Name:    ZINC001058079801
##########                DOCK_Rotatable_Bonds:                   7
##########                         Heavy_Atoms:                  24
##########                    Molecular_Weight:             349.457
##########                DOCK_Rotatable_Bonds:                   7
##########                       Formal_Charge:           0.0200001
##########                     HBond_Acceptors:                   8
##########                        HBond_Donors:                   0
##########                         Heavy_Atoms:                  24
##########                          Grid_Score:          -32.765282
##########                     Grid_vdw_energy:          -32.547134
##########                      Grid_es_energy:           -0.218147
##########           Internal_energy_repulsive:           19.757402

@<TRIPOS>MOLECULE
ZINC001058079801
 47 49 1 0 0
SMALL
USER_CHARGES


@<TRIPOS>ATOM
      1 C1         -9.3952   -1.5296   60.3612 C.3     1  ZINC001058079801   -0.1500
      2 C2         -8.8631   -2.6143   59.4223 C.3     1  ZINC001058079801   -0.1200
      3 C3        -10.0368   -3.3993   58.8332 C.3     1  ZINC001058079801   -0.0300
      4 C4        -10.7097   -2.5727   57.7677 C.2     1  ZINC001058079801    0.2900
      5 N5        -12.0067   -2.4948   57.6976 N.2     1  ZINC001058079801   -0.4800
      6 S6        -12.3374   -1.4789   56.3759 S.3     1  ZINC001058079801    0.1900
      7 C7        -10.6797   -1.2139   55.9881 C.2     1  ZINC001058079801    0.2700
      8 N8        -10.1682   -0.4398   54.9622 N.3     1  ZINC001058079801   -0.4300
      9 C9        -10.0618   -1.2158   53.7201 C.3     1  ZINC001058079801    0.0700
     10 C10        -9.6323   -0.2941   52.5765 C.3     1  ZINC001058079801   -0.1300
     11 C11        -8.2825    0.3422   52.9199 C.3     1  ZINC001058079801    0.1300
     12 N12        -7.8938    1.2703   51.8551 N.am    1  ZINC001058079801   -0.6100
     13 C13        -8.5759    2.5598   51.7222 C.3     1  ZINC001058079801    0.0700
     14 C14        -6.9084    0.9377   50.9977 C.2     1  ZINC001058079801    0.5200
     15 O15        -6.3425   -0.1292   51.1087 O.2     1  ZINC001058079801   -0.5300
     16 C16        -6.5096    1.8916   49.9014 C.3     1  ZINC001058079801   -0.0600
     17 C17        -5.7354    3.0413   50.4928 C.2     1  ZINC001058079801   -0.1900
     18 C18        -4.4434    3.0553   50.8993 C.2     1  ZINC001058079801   -0.0400
     19 O19        -4.2012    4.2938   51.3512 O.3     1  ZINC001058079801    0.1000
     20 N20        -5.1793    4.9991   51.2611 N.2     1  ZINC001058079801   -0.3600
     21 C21        -6.1876    4.3568   50.7460 C.2     1  ZINC001058079801    0.0000
     22 C22        -8.4079    1.1040   54.2422 C.3     1  ZINC001058079801   -0.1200
     23 C23        -8.8731    0.1417   55.3375 C.3     1  ZINC001058079801    0.0400
     24 N24       -10.0059   -1.9038   56.8840 N.2     1  ZINC001058079801   -0.5300
     25 H25        -8.5591   -0.9703   60.7810 H       1  ZINC001058079801    0.0600
     26 H26       -10.0423   -0.8523   59.8040 H       1  ZINC001058079801    0.0600
     27 H27        -9.9632   -1.9937   61.1675 H       1  ZINC001058079801    0.0600
     28 H28        -8.2951   -2.1502   58.6160 H       1  ZINC001058079801    0.0700
     29 H29        -8.2160   -3.2917   59.9795 H       1  ZINC001058079801    0.0700
     30 H30        -9.6698   -4.3275   58.3952 H       1  ZINC001058079801    0.1000
     31 H31       -10.7534   -3.6281   59.6220 H       1  ZINC001058079801    0.0900
     32 H32        -9.3217   -2.0057   53.8476 H       1  ZINC001058079801    0.0600
     33 H33       -11.0293   -1.6594   53.4851 H       1  ZINC001058079801    0.1000
     34 H34        -9.5382   -0.8734   51.6579 H       1  ZINC001058079801    0.0800
     35 H35       -10.3788    0.4881   52.4393 H       1  ZINC001058079801    0.0800
     36 H36        -7.5268   -0.4372   53.0176 H       1  ZINC001058079801    0.1000
     37 H37        -8.0542    3.3100   52.3165 H       1  ZINC001058079801    0.0600
     38 H38        -8.5787    2.8633   50.6753 H       1  ZINC001058079801    0.0800
     39 H39        -9.6027    2.4659   52.0759 H       1  ZINC001058079801    0.0800
     40 H40        -5.8870    1.3699   49.1746 H       1  ZINC001058079801    0.1100
     41 H41        -7.4038    2.2717   49.4074 H       1  ZINC001058079801    0.1100
     42 H42        -3.7461    2.2314   50.8660 H       1  ZINC001058079801    0.2200
     43 H43        -7.1758    4.7490   50.5561 H       1  ZINC001058079801    0.1900
     44 H44        -7.4392    1.5236   54.5137 H       1  ZINC001058079801    0.0900
     45 H45        -9.1353    1.9082   54.1313 H       1  ZINC001058079801    0.0800
     46 H46        -8.9771    0.6842   56.2773 H       1  ZINC001058079801    0.1000
     47 H47        -8.1384   -0.6545   55.4573 H       1  ZINC001058079801    0.0700
@<TRIPOS>BOND
     1     1     2    1
     2     1    25    1
     3     1    26    1
     4     1    27    1
     5     2     3    1
     6     2    28    1
     7     2    29    1
     8     3     4    1
     9     3    30    1
    10     3    31    1
    11     4    24    1
    12     4     5    2
    13     5     6    1
    14     6     7    1
    15     7     8    1
    16     7    24    2
    17     8    23    1
    18     8     9    1
    19     9    10    1
    20     9    32    1
    21     9    33    1
    22    10    11    1
    23    10    34    1
    24    10    35    1
    25    11    12    1
    26    11    22    1
    27    11    36    1
    28    12    13    1
    29    12    14   am
    30    13    37    1
    31    13    38    1
    32    13    39    1
    33    14    15    2
    34    14    16    1
    35    16    17    1
    36    16    40    1
    37    16    41    1
    38    17    21    1
    39    17    18    2
    40    18    19    1
    41    18    42    1
    42    19    20    1
    43    20    21    2
    44    21    43    1
    45    22    23    1
    46    22    44    1
    47    22    45    1
    48    23    46    1
    49    23    47    1
@<TRIPOS>SUBSTRUCTURE
     1 ZINC001058079801        1 TEMP              0 ****  ****    0 ROOT


##########                                Name:    ZINC000772422035
##########                DOCK_Rotatable_Bonds:                  10
##########                         Heavy_Atoms:                  25
##########                    Molecular_Weight:             348.399
##########                DOCK_Rotatable_Bonds:                  10
##########                       Formal_Charge:          0.00999987
##########                     HBond_Acceptors:                   7
##########                        HBond_Donors:                   0
##########                         Heavy_Atoms:                  25
##########                          Grid_Score:          -32.758530
##########                     Grid_vdw_energy:          -32.765285
##########                      Grid_es_energy:            0.006755
##########           Internal_energy_repulsive:           18.894987

@<TRIPOS>MOLECULE
ZINC000772422035
 49 50 1 0 0
SMALL
USER_CHARGES


@<TRIPOS>ATOM
      1 C1         -8.4781    0.2064   62.6038 C.3     1  ZINC000772422035    0.0300
      2 O2         -8.2449   -0.8761   61.7005 O.3     1  ZINC000772422035   -0.3900
      3 C3         -8.3076   -0.5064   60.3217 C.3     1  ZINC000772422035    0.0600
      4 C4         -9.7303   -0.0615   59.9772 C.3     1  ZINC000772422035    0.0700
      5 O5         -9.7690    0.4088   58.6284 O.3     1  ZINC000772422035   -0.3000
      6 C6         -9.8513   -0.5289   57.6512 C.ar    1  ZINC000772422035    0.3300
      7 C7         -9.7701   -0.1433   56.3195 C.ar    1  ZINC000772422035   -0.1700
      8 C8         -9.8554   -1.1097   55.3322 C.ar    1  ZINC000772422035   -0.0200
      9 C9         -9.7713   -0.7328   53.8755 C.3     1  ZINC000772422035    0.1100
     10 O10        -8.3780   -0.5949   53.4910 O.3     1  ZINC000772422035   -0.3500
     11 C11        -8.1222   -0.3948   52.1885 C.2     1  ZINC000772422035    0.4700
     12 O12        -8.8953   -0.7982   51.3521 O.2     1  ZINC000772422035   -0.5000
     13 C13        -6.8709    0.3329   51.7695 C.3     1  ZINC000772422035   -0.1100
     14 C14        -7.1176    1.8421   51.8199 C.3     1  ZINC000772422035    0.0000
     15 H15        -7.8446    2.0655   52.6007 H       1  ZINC000772422035    0.1000
     16 C16        -7.6577    2.3161   50.4692 C.3     1  ZINC000772422035   -0.1500
     17 C17        -5.8231    2.5529   52.1207 C.2     1  ZINC000772422035   -0.2000
     18 C18        -4.7147    2.6303   51.3461 C.2     1  ZINC000772422035   -0.0200
     19 C19        -4.5199    2.0127   49.9854 C.3     1  ZINC000772422035   -0.0800
     20 O20        -3.8252    3.3647   52.0290 O.3     1  ZINC000772422035    0.1000
     21 N21        -4.2694    3.7230   53.0950 N.2     1  ZINC000772422035   -0.3600
     22 C22        -5.4869    3.2983   53.2740 C.2     1  ZINC000772422035    0.0300
     23 C23        -6.3612    3.5442   54.4766 C.3     1  ZINC000772422035   -0.0800
     24 C24       -10.0199   -2.4338   55.7144 C.ar    1  ZINC000772422035   -0.1900
     25 C25       -10.0928   -2.7450   57.0578 C.ar    1  ZINC000772422035    0.1400
     26 N26       -10.0027   -1.8021   57.9762 N.ar    1  ZINC000772422035   -0.5300
     27 H27        -8.4135   -0.1560   63.6298 H       1  ZINC000772422035    0.0900
     28 H28        -7.7280    0.9809   62.4440 H       1  ZINC000772422035    0.0400
     29 H29        -9.4710    0.6201   62.4266 H       1  ZINC000772422035    0.0400
     30 H30        -7.6148    0.3138   60.1335 H       1  ZINC000772422035    0.0600
     31 H31        -8.0346   -1.3616   59.7034 H       1  ZINC000772422035    0.0700
     32 H32       -10.4116   -0.9053   60.0874 H       1  ZINC000772422035    0.0800
     33 H33       -10.0333    0.7404   60.6505 H       1  ZINC000772422035    0.0800
     34 H34        -9.6424    0.8966   56.0577 H       1  ZINC000772422035    0.1400
     35 H35       -10.2397   -1.5099   53.2715 H       1  ZINC000772422035    0.0900
     36 H36       -10.2881    0.2133   53.7146 H       1  ZINC000772422035    0.0900
     37 H37        -6.0566    0.0750   52.4465 H       1  ZINC000772422035    0.1100
     38 H38        -6.6045    0.0422   50.7533 H       1  ZINC000772422035    0.1100
     39 H39        -6.9920    1.9810   49.6739 H       1  ZINC000772422035    0.0600
     40 H40        -8.6526    1.9002   50.3096 H       1  ZINC000772422035    0.0800
     41 H41        -7.7134    3.4047   50.4620 H       1  ZINC000772422035    0.0600
     42 H42        -4.9246    2.6784   49.2231 H       1  ZINC000772422035    0.0900
     43 H43        -3.4560    1.8584   49.8054 H       1  ZINC000772422035    0.0900
     44 H44        -5.0381    1.0547   49.9436 H       1  ZINC000772422035    0.0900
     45 H45        -6.9921    4.4143   54.2953 H       1  ZINC000772422035    0.0800
     46 H46        -6.9888    2.6710   54.6543 H       1  ZINC000772422035    0.0800
     47 H47        -5.7349    3.7253   55.3502 H       1  ZINC000772422035    0.0800
     48 H48       -10.0904   -3.2123   54.9691 H       1  ZINC000772422035    0.1400
     49 H49       -10.2206   -3.7738   57.3605 H       1  ZINC000772422035    0.1700
@<TRIPOS>BOND
     1     1     2    1
     2     1    27    1
     3     1    28    1
     4     1    29    1
     5     2     3    1
     6     3     4    1
     7     3    30    1
     8     3    31    1
     9     4     5    1
    10     4    32    1
    11     4    33    1
    12     5     6    1
    13     6    26   ar
    14     6     7   ar
    15     7     8   ar
    16     7    34    1
    17     8     9    1
    18     8    24   ar
    19     9    10    1
    20     9    35    1
    21     9    36    1
    22    10    11    1
    23    11    12    2
    24    11    13    1
    25    13    14    1
    26    13    37    1
    27    13    38    1
    28    14    15    1
    29    14    16    1
    30    14    17    1
    31    16    39    1
    32    16    40    1
    33    16    41    1
    34    17    22    1
    35    17    18    2
    36    18    19    1
    37    18    20    1
    38    19    42    1
    39    19    43    1
    40    19    44    1
    41    20    21    1
    42    21    22    2
    43    22    23    1
    44    23    45    1
    45    23    46    1
    46    23    47    1
    47    24    25   ar
    48    24    48    1
    49    25    26   ar
    50    25    49    1
@<TRIPOS>SUBSTRUCTURE
     1 ZINC000772422035        1 TEMP              0 ****  ****    0 ROOT


##########                                Name:    ZINC000369046711
##########                DOCK_Rotatable_Bonds:                   8
##########                         Heavy_Atoms:                  26
##########                    Molecular_Weight:             367.467
##########                DOCK_Rotatable_Bonds:                   8
##########                       Formal_Charge:        -7.63685e-07
##########                     HBond_Acceptors:                   8
##########                        HBond_Donors:                   1
##########                         Heavy_Atoms:                  26
##########                          Grid_Score:          -32.739166
##########                     Grid_vdw_energy:          -33.317902
##########                      Grid_es_energy:            0.578735
##########           Internal_energy_repulsive:           37.400494

@<TRIPOS>MOLECULE
ZINC000369046711
 56 58 1 0 0
SMALL
USER_CHARGES


@<TRIPOS>ATOM
      1 C1        -10.1465   -3.1459   59.5173 C.3     1  ZINC000369046711   -0.1800
      2 C2         -9.6789   -1.7880   58.9900 C.3     1  ZINC000369046711    0.1400
      3 C3        -10.5098   -0.6768   59.6348 C.3     1  ZINC000369046711   -0.1800
      4 C4         -8.2023   -1.5872   59.3367 C.3     1  ZINC000369046711   -0.1400
      5 O5         -9.8479   -1.7442   57.5485 O.3     1  ZINC000369046711   -0.3700
      6 C6         -9.5332   -0.5900   56.9309 C.2     1  ZINC000369046711    0.6500
      7 O7         -9.0366    0.3215   57.5628 O.2     1  ZINC000369046711   -0.5700
      8 N8         -9.7692   -0.4454   55.6119 N.am    1  ZINC000369046711   -0.7100
      9 C9         -9.4252    0.8100   54.9395 C.3     1  ZINC000369046711    0.1800
     10 H10        -9.3159    1.5952   55.6876 H       1  ZINC000369046711    0.0900
     11 C11       -10.5544    1.1879   53.9817 C.3     1  ZINC000369046711   -0.1300
     12 C12       -10.6801    0.0778   52.9317 C.3     1  ZINC000369046711   -0.1200
     13 C13        -9.3910    0.0376   52.1160 C.3     1  ZINC000369046711   -0.1200
     14 C14        -8.1913   -0.3065   53.0011 C.3     1  ZINC000369046711   -0.1000
     15 H15        -8.1803   -1.3588   53.2847 H       1  ZINC000369046711    0.0900
     16 C16        -6.9238    0.1029   52.2020 C.3     1  ZINC000369046711    0.0400
     17 N17        -6.6050    1.4925   52.5842 N.3     1  ZINC000369046711   -0.5200
     18 C18        -6.6082    2.3753   51.4101 C.3     1  ZINC000369046711    0.1200
     19 C19        -5.2337    2.3947   50.7924 C.2     1  ZINC000369046711    0.2900
     20 N20        -4.8033    1.5951   49.8506 N.2     1  ZINC000369046711   -0.5400
     21 C21        -3.5414    1.8946   49.5452 C.2     1  ZINC000369046711    0.2000
     22 N22        -3.1496    2.8934   50.2918 N.2     1  ZINC000369046711   -0.3200
     23 N23        -4.2378    3.2404   51.1089 N.pl3   1  ZINC000369046711   -0.3700
     24 C24        -4.2768    4.3060   52.1135 C.3     1  ZINC000369046711    0.1000
     25 C25        -2.8729    4.5233   52.6813 C.3     1  ZINC000369046711    0.0500
     26 F26        -2.9099    5.5417   53.6398 F       1  ZINC000369046711   -0.2000
     27 C27        -7.5948    1.9439   53.5911 C.3     1  ZINC000369046711    0.0500
     28 C28        -8.1150    0.6362   54.2145 C.3     1  ZINC000369046711   -0.1000
     29 H29        -7.3743    0.2546   54.9173 H       1  ZINC000369046711    0.0900
     30 H30       -11.1984   -3.2890   59.2703 H       1  ZINC000369046711    0.0900
     31 H31        -9.5545   -3.9375   59.0580 H       1  ZINC000369046711    0.0600
     32 H32       -10.0196   -3.1787   60.5994 H       1  ZINC000369046711    0.0700
     33 H33       -10.3829   -0.7095   60.7169 H       1  ZINC000369046711    0.0700
     34 H34       -10.1766    0.2907   59.2591 H       1  ZINC000369046711    0.0600
     35 H35       -11.5617   -0.8198   59.3878 H       1  ZINC000369046711    0.0900
     36 H36        -7.6102   -2.3788   58.8773 H       1  ZINC000369046711    0.0700
     37 H37        -7.8692   -0.6197   58.9609 H       1  ZINC000369046711    0.0700
     38 H38        -8.0754   -1.6199   60.4187 H       1  ZINC000369046711    0.0800
     39 H39       -10.1667   -1.1724   55.1077 H       1  ZINC000369046711    0.4000
     40 H40       -11.4898    1.2802   54.5336 H       1  ZINC000369046711    0.0700
     41 H41       -10.3207    2.1332   53.4918 H       1  ZINC000369046711    0.0800
     42 H42       -10.8306   -0.8812   53.4275 H       1  ZINC000369046711    0.0600
     43 H43       -11.5238    0.2880   52.2744 H       1  ZINC000369046711    0.0700
     44 H44        -9.4860   -0.7153   51.3335 H       1  ZINC000369046711    0.0700
     45 H45        -9.2283    1.0122   51.6559 H       1  ZINC000369046711    0.0600
     46 H46        -6.0930   -0.5539   52.4596 H       1  ZINC000369046711    0.0800
     47 H47        -7.1244    0.0478   51.1320 H       1  ZINC000369046711    0.0800
     48 H48        -7.3293    2.0069   50.6805 H       1  ZINC000369046711    0.0800
     49 H49        -6.8836    3.3847   51.7154 H       1  ZINC000369046711    0.1000
     50 H50        -2.9397    1.3930   48.8018 H       1  ZINC000369046711    0.2200
     51 H51        -4.6287    5.2283   51.6514 H       1  ZINC000369046711    0.1200
     52 H52        -4.9543    4.0216   52.9186 H       1  ZINC000369046711    0.1100
     53 H53        -2.5214    3.6013   53.1443 H       1  ZINC000369046711    0.0900
     54 H54        -2.1952    4.8068   51.8760 H       1  ZINC000369046711    0.0800
     55 H55        -7.1144    2.5645   54.3475 H       1  ZINC000369046711    0.0900
     56 H56        -8.4084    2.4870   53.1102 H       1  ZINC000369046711    0.0600
@<TRIPOS>BOND
     1     1     2    1
     2     1    30    1
     3     1    31    1
     4     1    32    1
     5     2     3    1
     6     2     4    1
     7     2     5    1
     8     3    33    1
     9     3    34    1
    10     3    35    1
    11     4    36    1
    12     4    37    1
    13     4    38    1
    14     5     6    1
    15     6     7    2
    16     6     8   am
    17     8     9    1
    18     8    39    1
    19     9    10    1
    20     9    28    1
    21     9    11    1
    22    11    12    1
    23    11    40    1
    24    11    41    1
    25    12    13    1
    26    12    42    1
    27    12    43    1
    28    13    14    1
    29    13    44    1
    30    13    45    1
    31    14    15    1
    32    14    28    1
    33    14    16    1
    34    16    17    1
    35    16    46    1
    36    16    47    1
    37    17    18    1
    38    17    27    1
    39    18    19    1
    40    18    48    1
    41    18    49    1
    42    19    23    1
    43    19    20    2
    44    20    21    1
    45    21    22    2
    46    21    50    1
    47    22    23    1
    48    23    24    1
    49    24    25    1
    50    24    51    1
    51    24    52    1
    52    25    26    1
    53    25    53    1
    54    25    54    1
    55    27    28    1
    56    27    55    1
    57    27    56    1
    58    28    29    1
@<TRIPOS>SUBSTRUCTURE
     1 ZINC000369046711        1 TEMP              0 ****  ****    0 ROOT


##########                                Name:    ZINC000028372981
##########                DOCK_Rotatable_Bonds:                   7
##########                         Heavy_Atoms:                  28
##########                    Molecular_Weight:             380.443
##########                DOCK_Rotatable_Bonds:                   7
##########                       Formal_Charge:         1.78814e-07
##########                     HBond_Acceptors:                   6
##########                        HBond_Donors:                   1
##########                         Heavy_Atoms:                  28
##########                          Grid_Score:          -32.738468
##########                     Grid_vdw_energy:          -31.526943
##########                      Grid_es_energy:           -1.211525
##########           Internal_energy_repulsive:           22.147058

@<TRIPOS>MOLECULE
ZINC000028372981
 52 54 1 0 0
SMALL
USER_CHARGES


@<TRIPOS>ATOM
      1 C1          0.7340    3.0531   50.5744 C.3     1  ZINC000028372981   -0.1800
      2 C2         -0.6973    3.4039   50.8893 C.2     1  ZINC000028372981    0.5200
      3 O3         -0.9461    4.3486   51.6079 O.2     1  ZINC000028372981   -0.5100
      4 N4         -1.7010    2.6677   50.3724 N.am    1  ZINC000028372981   -0.5500
      5 C5         -1.5243    1.5088   49.4937 C.3     1  ZINC000028372981    0.1000
      6 C6         -2.9476    1.0205   49.1784 C.3     1  ZINC000028372981   -0.0900
      7 C7         -3.8503    1.9739   49.9293 C.ar    1  ZINC000028372981   -0.1500
      8 C8         -5.2227    2.0272   50.0262 C.ar    1  ZINC000028372981    0.0000
      9 C9         -5.8315    3.0252   50.7926 C.ar    1  ZINC000028372981   -0.1600
     10 C10        -7.3010    3.0901   50.8957 C.2     1  ZINC000028372981    0.5200
     11 O11        -7.9491    3.6184   50.0139 O.2     1  ZINC000028372981   -0.5000
     12 O12        -7.9253    2.5638   51.9675 O.3     1  ZINC000028372981   -0.3200
     13 C13        -7.5734    1.2035   52.3332 C.3     1  ZINC000028372981    0.0700
     14 H14        -6.4883    1.1029   52.3575 H       1  ZINC000028372981    0.1200
     15 C15        -8.1526    0.2322   51.3026 C.3     1  ZINC000028372981   -0.1700
     16 C16        -8.1378    0.8872   53.6943 C.2     1  ZINC000028372981    0.5200
     17 O17        -9.2702    0.4656   53.7982 O.2     1  ZINC000028372981   -0.4900
     18 N18        -7.3841    1.0727   54.7961 N.am    1  ZINC000028372981   -0.6600
     19 C19        -7.9081    0.7790   56.0598 C.ar    1  ZINC000028372981    0.1500
     20 C20        -8.6342   -0.3879   56.2579 C.ar    1  ZINC000028372981   -0.1300
     21 C21        -9.1498   -0.6751   57.5068 C.ar    1  ZINC000028372981   -0.1000
     22 C22        -8.9430    0.1976   58.5591 C.ar    1  ZINC000028372981   -0.1300
     23 C23        -8.2199    1.3604   58.3652 C.ar    1  ZINC000028372981   -0.0700
     24 C24        -7.9966    2.3085   59.5151 C.3     1  ZINC000028372981   -0.1200
     25 C25        -7.7026    1.6539   57.1189 C.ar    1  ZINC000028372981   -0.1200
     26 C26        -6.9156    2.9216   56.9083 C.3     1  ZINC000028372981   -0.1200
     27 C27        -5.0366    3.9579   51.4654 C.ar    1  ZINC000028372981   -0.0200
     28 C28        -3.6678    3.8938   51.3674 C.ar    1  ZINC000028372981   -0.1800
     29 C29        -3.0569    2.8988   50.5964 C.ar    1  ZINC000028372981    0.1900
     30 H30         0.8936    3.1097   49.4976 H       1  ZINC000028372981    0.1000
     31 H31         1.3992    3.7549   51.0776 H       1  ZINC000028372981    0.1000
     32 H32         0.9446    2.0411   50.9202 H       1  ZINC000028372981    0.1000
     33 H33        -1.0142    1.8040   48.5767 H       1  ZINC000028372981    0.0900
     34 H34        -0.9616    0.7284   50.0057 H       1  ZINC000028372981    0.0900
     35 H35        -3.1409    1.0776   48.1072 H       1  ZINC000028372981    0.1000
     36 H36        -3.0876    0.0002   49.5356 H       1  ZINC000028372981    0.1000
     37 H37        -5.8292    1.3004   49.5066 H       1  ZINC000028372981    0.1400
     38 H38        -9.2377    0.3327   51.2783 H       1  ZINC000028372981    0.0800
     39 H39        -7.7444    0.4610   50.3181 H       1  ZINC000028372981    0.0800
     40 H40        -7.8884   -0.7891   51.5771 H       1  ZINC000028372981    0.0800
     41 H41        -6.4784    1.4099   54.7130 H       1  ZINC000028372981    0.4100
     42 H42        -8.7918   -1.0723   55.4374 H       1  ZINC000028372981    0.1400
     43 H43        -9.7146   -1.5825   57.6615 H       1  ZINC000028372981    0.1300
     44 H44        -9.3469   -0.0295   59.5347 H       1  ZINC000028372981    0.1200
     45 H45        -7.0771    2.0392   60.0348 H       1  ZINC000028372981    0.0700
     46 H46        -7.9145    3.3270   59.1355 H       1  ZINC000028372981    0.0700
     47 H47        -8.8367    2.2452   60.2067 H       1  ZINC000028372981    0.0700
     48 H48        -5.8598    2.7300   57.0998 H       1  ZINC000028372981    0.0700
     49 H49        -7.0425    3.2615   55.8804 H       1  ZINC000028372981    0.0600
     50 H50        -7.2752    3.6904   57.5922 H       1  ZINC000028372981    0.0800
     51 H51        -5.4992    4.7293   52.0631 H       1  ZINC000028372981    0.1500
     52 H52        -3.0586    4.6172   51.8890 H       1  ZINC000028372981    0.1500
@<TRIPOS>BOND
     1     1     2    1
     2     1    30    1
     3     1    31    1
     4     1    32    1
     5     2     3    2
     6     2     4   am
     7     4    29    1
     8     4     5    1
     9     5     6    1
    10     5    33    1
    11     5    34    1
    12     6     7    1
    13     6    35    1
    14     6    36    1
    15     7    29   ar
    16     7     8   ar
    17     8     9   ar
    18     8    37    1
    19     9    10    1
    20     9    27   ar
    21    10    11    2
    22    10    12    1
    23    12    13    1
    24    13    14    1
    25    13    15    1
    26    13    16    1
    27    15    38    1
    28    15    39    1
    29    15    40    1
    30    16    17    2
    31    16    18   am
    32    18    19    1
    33    18    41    1
    34    19    25   ar
    35    19    20   ar
    36    20    21   ar
    37    20    42    1
    38    21    22   ar
    39    21    43    1
    40    22    23   ar
    41    22    44    1
    42    23    24    1
    43    23    25   ar
    44    24    45    1
    45    24    46    1
    46    24    47    1
    47    25    26    1
    48    26    48    1
    49    26    49    1
    50    26    50    1
    51    27    28   ar
    52    27    51    1
    53    28    29   ar
    54    28    52    1
@<TRIPOS>SUBSTRUCTURE
     1 ZINC000028372981        1 TEMP              0 ****  ****    0 ROOT


##########                                Name:    ZINC000081577146
##########                DOCK_Rotatable_Bonds:                   4
##########                         Heavy_Atoms:                  25
##########                    Molecular_Weight:             355.464
##########                DOCK_Rotatable_Bonds:                   4
##########                       Formal_Charge:                0.02
##########                     HBond_Acceptors:                   7
##########                        HBond_Donors:                   0
##########                         Heavy_Atoms:                  25
##########                          Grid_Score:          -32.733109
##########                     Grid_vdw_energy:          -32.549477
##########                      Grid_es_energy:           -0.183632
##########           Internal_energy_repulsive:           16.486889

@<TRIPOS>MOLECULE
ZINC000081577146
 46 49 1 0 0
SMALL
USER_CHARGES


@<TRIPOS>ATOM
      1 C1         -2.6934    1.1980   49.4013 C.3     1  ZINC000081577146   -0.0700
      2 C2         -3.7838    1.9208   50.1496 C.2     1  ZINC000081577146    0.2900
      3 N3         -3.6537    3.1719   50.4826 N.2     1  ZINC000081577146   -0.4800
      4 S4         -5.0873    3.5844   51.2969 S.3     1  ZINC000081577146    0.1900
      5 C5         -5.7905    2.0194   51.1382 C.2     1  ZINC000081577146    0.2700
      6 N6         -7.0270    1.6015   51.5962 N.3     1  ZINC000081577146   -0.4300
      7 C7         -7.1122    1.7135   53.0589 C.3     1  ZINC000081577146    0.0700
      8 C8         -8.5180    1.3184   53.5172 C.3     1  ZINC000081577146    0.0500
      9 N9         -8.8053   -0.0546   53.0794 N.3     1  ZINC000081577146   -0.5200
     10 C10       -10.1185   -0.4984   53.5657 C.3     1  ZINC000081577146    0.1900
     11 H11       -10.4751   -1.3228   52.9482 H       1  ZINC000081577146    0.0700
     12 C12       -11.1106    0.6637   53.4875 C.3     1  ZINC000081577146   -0.1500
     13 C13        -9.9955   -0.9585   54.9955 C.2     1  ZINC000081577146    0.1900
     14 N14       -10.3048   -2.1452   55.4378 N.2     1  ZINC000081577146   -0.4500
     15 C15       -10.0662   -2.1931   56.7569 C.2     1  ZINC000081577146   -0.0200
     16 C16        -9.5900   -0.9778   57.1305 C.2     1  ZINC000081577146    0.0000
     17 C17        -9.1910   -0.5690   58.4939 C.ar    1  ZINC000081577146   -0.0200
     18 C18        -8.5040    0.6295   58.6934 C.ar    1  ZINC000081577146   -0.1000
     19 C19        -8.1349    1.0054   59.9685 C.ar    1  ZINC000081577146   -0.1200
     20 C20        -8.4439    0.1971   61.0480 C.ar    1  ZINC000081577146   -0.1100
     21 C21        -9.1242   -0.9923   60.8570 C.ar    1  ZINC000081577146   -0.1100
     22 C22        -9.5045   -1.3770   59.5879 C.ar    1  ZINC000081577146   -0.0900
     23 O23        -9.5454   -0.2155   56.0157 O.3     1  ZINC000081577146   -0.2000
     24 C24        -8.7201   -0.1667   51.6165 C.3     1  ZINC000081577146    0.0600
     25 C25        -7.3142    0.2285   51.1583 C.3     1  ZINC000081577146    0.0500
     26 N26        -4.8972    1.3097   50.4816 N.2     1  ZINC000081577146   -0.5400
     27 H27        -2.8534    1.3094   48.3289 H       1  ZINC000081577146    0.0900
     28 H28        -1.7258    1.6215   49.6703 H       1  ZINC000081577146    0.0900
     29 H29        -2.7126    0.1401   49.6635 H       1  ZINC000081577146    0.0900
     30 H30        -6.3799    1.0491   53.5178 H       1  ZINC000081577146    0.0700
     31 H31        -6.9079    2.7418   53.3574 H       1  ZINC000081577146    0.1100
     32 H32        -8.5749    1.3729   54.6043 H       1  ZINC000081577146    0.1000
     33 H33        -9.2479    1.9997   53.0799 H       1  ZINC000081577146    0.0600
     34 H34       -10.7541    1.4881   54.1051 H       1  ZINC000081577146    0.0800
     35 H35       -11.1995    0.9965   52.4533 H       1  ZINC000081577146    0.0800
     36 H36       -12.0850    0.3345   53.8483 H       1  ZINC000081577146    0.0700
     37 H37       -10.2241   -3.0433   57.4038 H       1  ZINC000081577146    0.1900
     38 H38        -8.2616    1.2611   57.8515 H       1  ZINC000081577146    0.1300
     39 H39        -7.6033    1.9326   60.1243 H       1  ZINC000081577146    0.1300
     40 H40        -8.1524    0.4959   62.0441 H       1  ZINC000081577146    0.1300
     41 H41        -9.3617   -1.6191   61.7039 H       1  ZINC000081577146    0.1300
     42 H42       -10.0360   -2.3055   59.4402 H       1  ZINC000081577146    0.1300
     43 H43        -8.9243   -1.1949   51.3181 H       1  ZINC000081577146    0.0900
     44 H44        -9.4523    0.4978   51.1577 H       1  ZINC000081577146    0.0500
     45 H45        -7.2574    0.1739   50.0712 H       1  ZINC000081577146    0.1000
     46 H46        -6.5844   -0.4528   51.5956 H       1  ZINC000081577146    0.0800
@<TRIPOS>BOND
     1     1     2    1
     2     1    27    1
     3     1    28    1
     4     1    29    1
     5     2    26    1
     6     2     3    2
     7     3     4    1
     8     4     5    1
     9     5     6    1
    10     5    26    2
    11     6    25    1
    12     6     7    1
    13     7     8    1
    14     7    30    1
    15     7    31    1
    16     8     9    1
    17     8    32    1
    18     8    33    1
    19     9    10    1
    20     9    24    1
    21    10    11    1
    22    10    12    1
    23    10    13    1
    24    12    34    1
    25    12    35    1
    26    12    36    1
    27    13    23    1
    28    13    14    2
    29    14    15    1
    30    15    16    2
    31    15    37    1
    32    16    17    1
    33    16    23    1
    34    17    22   ar
    35    17    18   ar
    36    18    19   ar
    37    18    38    1
    38    19    20   ar
    39    19    39    1
    40    20    21   ar
    41    20    40    1
    42    21    22   ar
    43    21    41    1
    44    22    42    1
    45    24    25    1
    46    24    43    1
    47    24    44    1
    48    25    45    1
    49    25    46    1
@<TRIPOS>SUBSTRUCTURE
     1 ZINC000081577146        1 TEMP              0 ****  ****    0 ROOT


##########                                Name:    ZINC000000992968
##########                DOCK_Rotatable_Bonds:                   8
##########                         Heavy_Atoms:                  27
##########                    Molecular_Weight:             384.772
##########                DOCK_Rotatable_Bonds:                   8
##########                       Formal_Charge:           0.0199999
##########                     HBond_Acceptors:                   7
##########                        HBond_Donors:                   0
##########                         Heavy_Atoms:                  27
##########                          Grid_Score:          -32.721130
##########                     Grid_vdw_energy:          -31.528391
##########                      Grid_es_energy:           -1.192739
##########           Internal_energy_repulsive:            6.192847

@<TRIPOS>MOLECULE
ZINC000000992968
 40 42 1 0 0
SMALL
USER_CHARGES


@<TRIPOS>ATOM
      1 O1         -9.9925   -2.2324   58.3161 O.2     1  ZINC000000992968   -0.4600
      2 C2        -10.0640   -1.0186   58.3449 C.2     1  ZINC000000992968    0.5600
      3 O3        -10.7039   -0.3568   57.3583 O.3     1  ZINC000000992968   -0.2900
      4 C4        -10.1582   -0.3820   56.1162 C.ar    1  ZINC000000992968    0.1200
      5 C5        -10.9194   -0.8090   55.0335 C.ar    1  ZINC000000992968   -0.1300
      6 C6        -10.3706   -0.8369   53.7719 C.ar    1  ZINC000000992968   -0.0400
      7 C7         -9.0435   -0.4340   53.5792 C.ar    1  ZINC000000992968   -0.1600
      8 C8         -8.4529   -0.4612   52.2345 C.2     1  ZINC000000992968    0.4000
      9 O9         -9.1124   -0.8406   51.2899 O.2     1  ZINC000000992968   -0.4200
     10 C10        -7.0273   -0.0178   52.0285 C.3     1  ZINC000000992968    0.0200
     11 O11        -6.7703    0.1411   50.6084 O.3     1  ZINC000000992968   -0.3300
     12 C12        -6.5443    1.3927   50.1639 C.2     1  ZINC000000992968    0.5100
     13 O13        -7.3522    1.9338   49.4358 O.2     1  ZINC000000992968   -0.5000
     14 C14        -5.3146    2.1067   50.5620 C.ar    1  ZINC000000992968   -0.1300
     15 C15        -4.1314    1.9194   49.8439 C.ar    1  ZINC000000992968   -0.0500
     16 C16        -2.9866    2.5894   50.2203 C.ar    1  ZINC000000992968   -0.1200
     17 C17        -3.0082    3.4465   51.3083 C.ar    1  ZINC000000992968    0.0000
     18 Cl18       -1.5626    4.2859   51.7763 Cl      1  ZINC000000992968   -0.0500
     19 C19        -4.1788    3.6368   52.0242 C.ar    1  ZINC000000992968   -0.1200
     20 C20        -5.3315    2.9766   51.6545 C.ar    1  ZINC000000992968   -0.0400
     21 C21        -8.2816   -0.0044   54.6726 C.ar    1  ZINC000000992968   -0.0600
     22 C22        -8.8416    0.0247   55.9294 C.ar    1  ZINC000000992968   -0.1200
     23 C23        -9.4607   -0.2757   59.4535 C.2     1  ZINC000000992968   -0.0700
     24 C24        -8.7944   -0.8188   60.5158 C.2     1  ZINC000000992968   -0.0900
     25 C25        -8.3896    0.2515   61.3277 C.2     1  ZINC000000992968   -0.2300
     26 C26        -8.8206    1.3869   60.7339 C.2     1  ZINC000000992968    0.0200
     27 O27        -9.4603    1.0654   59.6022 O.3     1  ZINC000000992968   -0.1500
     28 H28       -11.9429   -1.1197   55.1831 H       1  ZINC000000992968    0.1400
     29 H29       -10.9623   -1.1694   52.9317 H       1  ZINC000000992968    0.1500
     30 H30        -6.8659    0.9334   52.5356 H       1  ZINC000000992968    0.1100
     31 H31        -6.3508   -0.7676   52.4386 H       1  ZINC000000992968    0.1100
     32 H32        -4.1132    1.2509   48.9959 H       1  ZINC000000992968    0.1500
     33 H33        -2.0710    2.4454   49.6659 H       1  ZINC000000992968    0.1500
     34 H34        -4.1894    4.3066   52.8713 H       1  ZINC000000992968    0.1500
     35 H35        -6.2435    3.1261   52.2133 H       1  ZINC000000992968    0.1500
     36 H36        -7.2575    0.3071   54.5293 H       1  ZINC000000992968    0.1400
     37 H37        -8.2549    0.3561   56.7733 H       1  ZINC000000992968    0.1400
     38 H38        -8.6143   -1.8683   60.6957 H       1  ZINC000000992968    0.1700
     39 H39        -7.8375    0.1815   62.2532 H       1  ZINC000000992968    0.1700
     40 H40        -8.6703    2.3885   61.1086 H       1  ZINC000000992968    0.2200
@<TRIPOS>BOND
     1     1     2    2
     2     2     3    1
     3     2    23    1
     4     3     4    1
     5     4    22   ar
     6     4     5   ar
     7     5     6   ar
     8     5    28    1
     9     6     7   ar
    10     6    29    1
    11     7     8    1
    12     7    21   ar
    13     8     9    2
    14     8    10    1
    15    10    11    1
    16    10    30    1
    17    10    31    1
    18    11    12    1
    19    12    13    2
    20    12    14    1
    21    14    20   ar
    22    14    15   ar
    23    15    16   ar
    24    15    32    1
    25    16    17   ar
    26    16    33    1
    27    17    18    1
    28    17    19   ar
    29    19    20   ar
    30    19    34    1
    31    20    35    1
    32    21    22   ar
    33    21    36    1
    34    22    37    1
    35    23    27    1
    36    23    24    2
    37    24    25    1
    38    24    38    1
    39    25    26    2
    40    25    39    1
    41    26    27    1
    42    26    40    1
@<TRIPOS>SUBSTRUCTURE
     1 ZINC000000992968        1 TEMP              0 ****  ****    0 ROOT


##########                                Name:    ZINC000433533595
##########                DOCK_Rotatable_Bonds:                  10
##########                         Heavy_Atoms:                  24
##########                    Molecular_Weight:             397.312
##########                DOCK_Rotatable_Bonds:                  10
##########                       Formal_Charge:          0.00999916
##########                     HBond_Acceptors:                   5
##########                        HBond_Donors:                   1
##########                         Heavy_Atoms:                  24
##########                          Grid_Score:          -32.716415
##########                     Grid_vdw_energy:          -32.036213
##########                      Grid_es_energy:           -0.680202
##########           Internal_energy_repulsive:           16.709993

@<TRIPOS>MOLECULE
ZINC000433533595
 49 50 1 0 0
SMALL
USER_CHARGES


@<TRIPOS>ATOM
      1 C1         -7.4011   -0.2289   50.9210 C.3     1  ZINC000433533595   -0.1500
      2 C2         -8.2108    0.9609   51.4402 C.3     1  ZINC000433533595   -0.1200
      3 C3         -9.2500    0.4692   52.4498 C.3     1  ZINC000433533595   -0.1300
      4 C4         -8.5400   -0.2069   53.6242 C.3     1  ZINC000433533595    0.1000
      5 N5         -9.4399   -0.2503   54.7795 N.am    1  ZINC000433533595   -0.5500
      6 C6        -10.4343   -1.1589   54.8253 C.2     1  ZINC000433533595    0.5100
      7 O7        -10.5841   -1.9411   53.9097 O.2     1  ZINC000433533595   -0.5100
      8 C8        -11.3517   -1.2031   56.0029 C.2     1  ZINC000433533595    0.5000
      9 O9        -12.2174   -0.3617   56.1297 O.2     1  ZINC000433533595   -0.4900
     10 N10       -11.2183   -2.1771   56.9248 N.am    1  ZINC000433533595   -0.6300
     11 C11       -12.0775   -2.2185   58.0277 C.ar    1  ZINC000433533595    0.1200
     12 C12       -13.3220   -2.8222   57.9178 C.ar    1  ZINC000433533595   -0.0600
     13 C13       -14.1695   -2.8618   59.0098 C.ar    1  ZINC000433533595   -0.1100
     14 Br14      -15.8650   -3.6854   58.8586 Br      1  ZINC000433533595   -0.0400
     15 C15       -13.7796   -2.3007   60.2127 C.ar    1  ZINC000433533595   -0.0600
     16 C16       -12.5408   -1.6974   60.3294 C.ar    1  ZINC000433533595   -0.1900
     17 C17       -11.6836   -1.6586   59.2421 C.ar    1  ZINC000433533595    0.1300
     18 O18       -10.4652   -1.0656   59.3558 O.3     1  ZINC000433533595   -0.3100
     19 C19        -9.5329   -1.6663   60.2570 C.3     1  ZINC000433533595    0.0800
     20 C20        -8.5462   -2.5302   59.4690 C.3     1  ZINC000433533595   -0.1500
     21 C21        -8.7685   -0.5718   61.0044 C.3     1  ZINC000433533595   -0.1800
     22 C22        -9.2589    0.6941   55.8848 C.3     1  ZINC000433533595    0.0600
     23 C23        -7.8262    0.9969   56.3277 C.3     1  ZINC000433533595   -0.1900
     24 C24        -8.6280    2.0495   55.5597 C.3     1  ZINC000433533595   -0.1800
     25 H25        -8.0702   -0.9400   50.4366 H       1  ZINC000433533595    0.0500
     26 H26        -6.6608    0.1215   50.2019 H       1  ZINC000433533595    0.0500
     27 H27        -6.8955   -0.7158   51.7550 H       1  ZINC000433533595    0.0500
     28 H28        -7.5417    1.6721   51.9247 H       1  ZINC000433533595    0.0700
     29 H29        -8.7164    1.4479   50.6062 H       1  ZINC000433533595    0.0600
     30 H30        -9.8307    1.3162   52.8151 H       1  ZINC000433533595    0.0600
     31 H31        -9.9154   -0.2463   51.9668 H       1  ZINC000433533595    0.0700
     32 H32        -8.2598   -1.2223   53.3437 H       1  ZINC000433533595    0.1100
     33 H33        -7.6448    0.3588   53.8821 H       1  ZINC000433533595    0.0800
     34 H34       -10.5264   -2.8493   56.8235 H       1  ZINC000433533595    0.4300
     35 H35       -13.6288   -3.2607   56.9797 H       1  ZINC000433533595    0.1600
     36 H36       -14.4448   -2.3335   61.0629 H       1  ZINC000433533595    0.1400
     37 H37       -12.2397   -1.2604   61.2700 H       1  ZINC000433533595    0.1500
     38 H38       -10.0694   -2.2886   60.9732 H       1  ZINC000433533595    0.0800
     39 H39        -8.0099   -1.9079   58.7528 H       1  ZINC000433533595    0.0700
     40 H40        -7.8351   -2.9884   60.1564 H       1  ZINC000433533595    0.0800
     41 H41        -9.0908   -3.3100   58.9365 H       1  ZINC000433533595    0.0700
     42 H42        -8.2322    0.0507   60.2881 H       1  ZINC000433533595    0.0700
     43 H43        -9.4715    0.0438   61.5657 H       1  ZINC000433533595    0.0600
     44 H44        -8.0574   -1.0299   61.6917 H       1  ZINC000433533595    0.0800
     45 H45       -10.0296    0.6695   56.6551 H       1  ZINC000433533595    0.1400
     46 H46        -7.6539    1.1714   57.3898 H       1  ZINC000433533595    0.0900
     47 H47        -7.0182    0.4935   55.7967 H       1  ZINC000433533595    0.1400
     48 H48        -8.3476    2.2385   54.5235 H       1  ZINC000433533595    0.1000
     49 H49        -8.9834    2.9165   56.1165 H       1  ZINC000433533595    0.1000
@<TRIPOS>BOND
     1     1     2    1
     2     1    25    1
     3     1    26    1
     4     1    27    1
     5     2     3    1
     6     2    28    1
     7     2    29    1
     8     3     4    1
     9     3    30    1
    10     3    31    1
    11     4     5    1
    12     4    32    1
    13     4    33    1
    14     5     6   am
    15     5    22    1
    16     6     7    2
    17     6     8    1
    18     8     9    2
    19     8    10   am
    20    10    11    1
    21    10    34    1
    22    11    17   ar
    23    11    12   ar
    24    12    13   ar
    25    12    35    1
    26    13    14    1
    27    13    15   ar
    28    15    16   ar
    29    15    36    1
    30    16    17   ar
    31    16    37    1
    32    17    18    1
    33    18    19    1
    34    19    20    1
    35    19    21    1
    36    19    38    1
    37    20    39    1
    38    20    40    1
    39    20    41    1
    40    21    42    1
    41    21    43    1
    42    21    44    1
    43    22    24    1
    44    22    23    1
    45    22    45    1
    46    23    24    1
    47    23    46    1
    48    23    47    1
    49    24    48    1
    50    24    49    1
@<TRIPOS>SUBSTRUCTURE
     1 ZINC000433533595        1 TEMP              0 ****  ****    0 ROOT


##########                                Name:    ZINC000432253027
##########                DOCK_Rotatable_Bonds:                   8
##########                         Heavy_Atoms:                  26
##########                    Molecular_Weight:             401.436
##########                DOCK_Rotatable_Bonds:                   8
##########                       Formal_Charge:         1.19209e-07
##########                     HBond_Acceptors:                  11
##########                        HBond_Donors:                   0
##########                         Heavy_Atoms:                  26
##########                          Grid_Score:          -32.699978
##########                     Grid_vdw_energy:          -31.433760
##########                      Grid_es_energy:           -1.266217
##########           Internal_energy_repulsive:           11.097946

@<TRIPOS>MOLECULE
ZINC000432253027
 40 42 1 0 0
SMALL
USER_CHARGES


@<TRIPOS>ATOM
      1 C1        -11.1727    2.2871   62.2148 C.3     1  ZINC000432253027    0.0300
      2 O2        -11.0410    0.9889   62.7974 O.3     1  ZINC000432253027   -0.3100
      3 C3         -9.8863    0.7257   63.4623 C.ar    1  ZINC000432253027    0.1500
      4 C4         -9.6903    1.2246   64.7396 C.ar    1  ZINC000432253027   -0.2100
      5 C5         -8.5145    0.9565   65.4153 C.ar    1  ZINC000432253027   -0.0600
      6 C6         -7.5268    0.1895   64.8227 C.ar    1  ZINC000432253027   -0.1600
      7 C7         -7.7069   -0.3147   63.5511 C.ar    1  ZINC000432253027   -0.0300
      8 C8         -8.8915   -0.0559   62.8616 C.ar    1  ZINC000432253027   -0.0600
      9 C9         -9.0906   -0.5929   61.4993 C.2     1  ZINC000432253027    0.1200
     10 N10        -9.8721   -1.5865   61.1852 N.2     1  ZINC000432253027   -0.4600
     11 C11        -9.9239   -1.9272   59.9175 C.2     1  ZINC000432253027    0.0800
     12 C12       -10.7902   -3.0589   59.4279 C.3     1  ZINC000432253027   -0.0200
     13 S13       -11.4227   -2.6647   57.7742 S.3     1  ZINC000432253027   -0.1700
     14 C14       -12.7934   -1.5283   58.1217 C.3     1  ZINC000432253027   -0.0300
     15 C15       -13.8419   -2.2404   58.9368 C.2     1  ZINC000432253027    0.2100
     16 N16       -13.9769   -2.2060   60.2401 N.2     1  ZINC000432253027   -0.2700
     17 N17       -14.9871   -2.9410   60.5550 N.2     1  ZINC000432253027   -0.0500
     18 N18       -15.5001   -3.4435   59.4865 N.2     1  ZINC000432253027   -0.0700
     19 N19       -14.8252   -3.0306   58.4673 N.pl3   1  ZINC000432253027   -0.3100
     20 C20       -15.0761   -3.3666   57.0636 C.3     1  ZINC000432253027    0.0700
     21 C21       -14.5428   -4.7707   56.7721 C.3     1  ZINC000432253027    0.4300
     22 F22       -14.8260   -5.1108   55.4450 F       1  ZINC000432253027   -0.1500
     23 F23       -13.1587   -4.7952   56.9746 F       1  ZINC000432253027   -0.1700
     24 F24       -15.1561   -5.6899   57.6302 F       1  ZINC000432253027   -0.1700
     25 C25        -9.1610   -1.2076   59.0888 C.2     1  ZINC000432253027   -0.2500
     26 S26        -8.3150    0.0129   60.0381 S.3     1  ZINC000432253027    0.1600
     27 H27       -12.1385    2.3649   61.7155 H       1  ZINC000432253027    0.1000
     28 H28       -11.1054    3.0444   62.9959 H       1  ZINC000432253027    0.0600
     29 H29       -10.3747    2.4421   61.4886 H       1  ZINC000432253027    0.0600
     30 H30       -10.4569    1.8240   65.2080 H       1  ZINC000432253027    0.1400
     31 H31        -8.3656    1.3482   66.4107 H       1  ZINC000432253027    0.1300
     32 H32        -6.6112   -0.0152   65.3577 H       1  ZINC000432253027    0.1300
     33 H33        -6.9335   -0.9127   63.0919 H       1  ZINC000432253027    0.1400
     34 H34       -10.2005   -3.9746   59.3826 H       1  ZINC000432253027    0.1000
     35 H35       -11.6264   -3.1990   60.1129 H       1  ZINC000432253027    0.1100
     36 H36       -12.4207   -0.6694   58.6797 H       1  ZINC000432253027    0.1100
     37 H37       -13.2312   -1.1894   57.1828 H       1  ZINC000432253027    0.1300
     38 H38       -16.1482   -3.3375   56.8691 H       1  ZINC000432253027    0.1500
     39 H39       -14.5705   -2.6453   56.4215 H       1  ZINC000432253027    0.1600
     40 H40        -9.0800   -1.3475   58.0210 H       1  ZINC000432253027    0.1800
@<TRIPOS>BOND
     1     1     2    1
     2     1    27    1
     3     1    28    1
     4     1    29    1
     5     2     3    1
     6     3     8   ar
     7     3     4   ar
     8     4     5   ar
     9     4    30    1
    10     5     6   ar
    11     5    31    1
    12     6     7   ar
    13     6    32    1
    14     7     8   ar
    15     7    33    1
    16     8     9    1
    17     9    26    1
    18     9    10    2
    19    10    11    1
    20    11    12    1
    21    11    25    2
    22    12    13    1
    23    12    34    1
    24    12    35    1
    25    13    14    1
    26    14    15    1
    27    14    36    1
    28    14    37    1
    29    15    19    1
    30    15    16    2
    31    16    17    1
    32    17    18    2
    33    18    19    1
    34    19    20    1
    35    20    21    1
    36    20    38    1
    37    20    39    1
    38    21    22    1
    39    21    23    1
    40    21    24    1
    41    25    26    1
    42    25    40    1
@<TRIPOS>SUBSTRUCTURE
     1 ZINC000432253027        1 TEMP              0 ****  ****    0 ROOT


##########                                Name:    ZINC000621594459
##########                DOCK_Rotatable_Bonds:                  10
##########                         Heavy_Atoms:                  25
##########                    Molecular_Weight:             389.497
##########                DOCK_Rotatable_Bonds:                  10
##########                       Formal_Charge:         -7.7486e-07
##########                     HBond_Acceptors:                  10
##########                        HBond_Donors:                   3
##########                         Heavy_Atoms:                  25
##########                          Grid_Score:          -32.670551
##########                     Grid_vdw_energy:          -33.762264
##########                      Grid_es_energy:            1.091714
##########           Internal_energy_repulsive:           11.635496

@<TRIPOS>MOLECULE
ZINC000621594459
 48 49 1 0 0
SMALL
USER_CHARGES


@<TRIPOS>ATOM
      1 C1          5.4830    2.6364   50.7341 C.3     1  ZINC000621594459   -0.1600
      2 C2          4.3674    1.6346   51.0393 C.3     1  ZINC000621594459    0.1300
      3 C3          4.8439    0.6513   52.1102 C.3     1  ZINC000621594459   -0.1800
      4 N4          3.1865    2.3522   51.5260 N.am    1  ZINC000621594459   -1.1100
      5 S5          1.6729    1.7422   51.2450 S.o2    1  ZINC000621594459    2.6200
      6 O6          1.7141    0.4338   51.7980 O.2     1  ZINC000621594459   -0.9500
      7 O7          0.7946    2.7304   51.7660 O.2     1  ZINC000621594459   -0.9400
      8 C8          1.5442    1.6656   49.4373 C.3     1  ZINC000621594459   -0.6600
      9 C9          0.1687    1.1209   49.0466 C.3     1  ZINC000621594459    0.1300
     10 N10        -0.8750    1.9297   49.6811 N.am    1  ZINC000621594459   -0.7200
     11 C11        -2.1713    1.5897   49.5380 C.2     1  ZINC000621594459    0.5600
     12 O12        -2.4743    0.6112   48.8836 O.2     1  ZINC000621594459   -0.5200
     13 C13        -3.2248    2.4069   50.1770 C.ar    1  ZINC000621594459   -0.1500
     14 C14        -2.8784    3.5082   50.9610 C.ar    1  ZINC000621594459   -0.0300
     15 C15        -3.8664    4.2670   51.5542 C.ar    1  ZINC000621594459   -0.1400
     16 C16        -5.1979    3.9378   51.3734 C.ar    1  ZINC000621594459    0.0100
     17 C17        -5.5480    2.8467   50.5977 C.ar    1  ZINC000621594459   -0.6800
     18 S18        -7.2469    2.4357   50.3745 S.o2    1  ZINC000621594459    2.7000
     19 O19        -7.9029    3.6360   49.9894 O.2     1  ZINC000621594459   -0.9400
     20 O20        -7.2734    1.2500   49.5919 O.2     1  ZINC000621594459   -0.9500
     21 N21        -7.8520    2.0284   51.8612 N.am    1  ZINC000621594459   -1.0900
     22 C22        -7.2745    0.9059   52.6046 C.3     1  ZINC000621594459    0.0800
     23 C23        -8.1910    0.1521   53.5704 C.3     1  ZINC000621594459   -0.1800
     24 C24        -7.7647   -0.5005   52.2540 C.3     1  ZINC000621594459   -0.1900
     25 C25        -4.5704    2.0836   49.9941 C.ar    1  ZINC000621594459    0.0400
     26 H26         6.3616    2.1025   50.3720 H       1  ZINC000621594459    0.0700
     27 H27         5.1435    3.3369   49.9712 H       1  ZINC000621594459    0.0700
     28 H28         5.7386    3.1832   51.6417 H       1  ZINC000621594459    0.0600
     29 H29         4.1119    1.0878   50.1317 H       1  ZINC000621594459    0.0900
     30 H30         5.0995    1.1981   53.0178 H       1  ZINC000621594459    0.0700
     31 H31         4.0492   -0.0623   52.3277 H       1  ZINC000621594459    0.0600
     32 H32         5.7226    0.1174   51.7481 H       1  ZINC000621594459    0.0700
     33 H33         3.2913    3.1847   52.0128 H       1  ZINC000621594459    0.4200
     34 H34         1.6707    2.6650   49.0213 H       1  ZINC000621594459    0.1400
     35 H35         2.3200    1.0079   49.0453 H       1  ZINC000621594459    0.1400
     36 H36         0.0546    1.1655   47.9634 H       1  ZINC000621594459    0.0900
     37 H37         0.0796    0.0867   49.3791 H       1  ZINC000621594459    0.0900
     38 H38        -0.6332    2.7098   50.2044 H       1  ZINC000621594459    0.4000
     39 H39        -1.8393    3.7659   51.1034 H       1  ZINC000621594459    0.1300
     40 H40        -3.5998    5.1196   52.1611 H       1  ZINC000621594459    0.1400
     41 H41        -5.9674    4.5347   51.8402 H       1  ZINC000621594459    0.1500
     42 H42        -8.5889    2.5330   52.2398 H       1  ZINC000621594459    0.4200
     43 H43        -6.2279    1.0181   52.8874 H       1  ZINC000621594459    0.1400
     44 H44        -7.7473   -0.2316   54.4893 H       1  ZINC000621594459    0.1100
     45 H45        -9.2235    0.4914   53.6528 H       1  ZINC000621594459    0.1000
     46 H46        -8.5169   -0.5905   51.4701 H       1  ZINC000621594459    0.1000
     47 H47        -7.0406   -1.3135   52.3065 H       1  ZINC000621594459    0.1000
     48 H48        -4.8449    1.2325   49.3886 H       1  ZINC000621594459    0.1600
@<TRIPOS>BOND
     1     1     2    1
     2     1    26    1
     3     1    27    1
     4     1    28    1
     5     2     3    1
     6     2     4    1
     7     2    29    1
     8     3    30    1
     9     3    31    1
    10     3    32    1
    11     4     5   am
    12     4    33    1
    13     5     6    2
    14     5     7    2
    15     5     8    1
    16     8     9    1
    17     8    34    1
    18     8    35    1
    19     9    10    1
    20     9    36    1
    21     9    37    1
    22    10    11   am
    23    10    38    1
    24    11    12    2
    25    11    13    1
    26    13    25   ar
    27    13    14   ar
    28    14    15   ar
    29    14    39    1
    30    15    16   ar
    31    15    40    1
    32    16    17   ar
    33    16    41    1
    34    17    18    1
    35    17    25   ar
    36    18    19    2
    37    18    20    2
    38    18    21   am
    39    21    22    1
    40    21    42    1
    41    22    24    1
    42    22    23    1
    43    22    43    1
    44    23    24    1
    45    23    44    1
    46    23    45    1
    47    24    46    1
    48    24    47    1
    49    25    48    1
@<TRIPOS>SUBSTRUCTURE
     1 ZINC000621594459        1 TEMP              0 ****  ****    0 ROOT


##########                                Name:    ZINC000185180600
##########                DOCK_Rotatable_Bonds:                   7
##########                         Heavy_Atoms:                  26
##########                    Molecular_Weight:             395.953
##########                DOCK_Rotatable_Bonds:                   7
##########                       Formal_Charge:          0.00999977
##########                     HBond_Acceptors:                   7
##########                        HBond_Donors:                   0
##########                         Heavy_Atoms:                  26
##########                          Grid_Score:          -32.653332
##########                     Grid_vdw_energy:          -32.979443
##########                      Grid_es_energy:            0.326112
##########           Internal_energy_repulsive:           26.585670

@<TRIPOS>MOLECULE
ZINC000185180600
 52 53 1 0 0
SMALL
USER_CHARGES


@<TRIPOS>ATOM
      1 C1        -13.7888   -2.6512   57.8965 C.3     1  ZINC000185180600   -0.1500
      2 C2        -12.3956   -2.0382   57.7411 C.3     1  ZINC000185180600   -0.0900
      3 C3        -11.3351   -3.1002   58.0382 C.3     1  ZINC000185180600   -0.1500
      4 C4        -12.2196   -1.5283   56.3093 C.3     1  ZINC000185180600   -0.1300
      5 C5        -10.8893   -0.7816   56.1938 C.3     1  ZINC000185180600    0.1300
      6 H6        -10.0875   -1.4042   56.5905 H       1  ZINC000185180600    0.1100
      7 C7        -10.9652    0.5218   56.9917 C.3     1  ZINC000185180600   -0.1600
      8 N8        -10.6206   -0.4774   54.7862 N.am    1  ZINC000185180600   -0.6000
      9 C9        -11.7277   -0.3950   53.8302 C.3     1  ZINC000185180600    0.0700
     10 C10        -9.3549   -0.2734   54.3705 C.2     1  ZINC000185180600    0.5400
     11 O11        -8.4385   -0.3401   55.1621 O.2     1  ZINC000185180600   -0.5300
     12 C12        -9.0783    0.0376   52.9221 C.3     1  ZINC000185180600   -0.5000
     13 S13        -7.4447    0.8117   52.7712 S.o     1  ZINC000185180600    1.3200
     14 O14        -7.4447    2.0557   53.4581 O.2     1  ZINC000185180600   -0.8000
     15 C15        -7.2958    1.1061   50.9875 C.3     1  ZINC000185180600   -0.3900
     16 C16        -5.9685    1.7567   50.6947 C.2     1  ZINC000185180600    0.1000
     17 N17        -4.8650    1.1342   50.3662 N.2     1  ZINC000185180600   -0.2800
     18 N18        -3.8606    2.0927   50.1787 N.pl3   1  ZINC000185180600   -0.3200
     19 C19        -2.5303    1.8344   49.8187 C.ar    1  ZINC000185180600    0.1700
     20 C20        -2.2294    0.7588   48.9942 C.ar    1  ZINC000185180600   -0.1300
     21 C21        -0.9183    0.5064   48.6410 C.ar    1  ZINC000185180600   -0.0800
     22 C22         0.0952    1.3244   49.1088 C.ar    1  ZINC000185180600   -0.0500
     23 Cl23        1.7423    1.0046   48.6632 Cl      1  ZINC000185180600   -0.0600
     24 C24        -0.2023    2.3972   49.9309 C.ar    1  ZINC000185180600   -0.0800
     25 C25        -1.5125    2.6572   50.2818 C.ar    1  ZINC000185180600   -0.1100
     26 C26        -4.4012    3.3109   50.4065 C.2     1  ZINC000185180600    0.0600
     27 C27        -5.7050    3.1305   50.7213 C.2     1  ZINC000185180600   -0.2500
     28 H28       -13.9143   -3.0145   58.9165 H       1  ZINC000185180600    0.0500
     29 H29       -14.5444   -1.8947   57.6848 H       1  ZINC000185180600    0.0600
     30 H30       -13.9004   -3.4813   57.1989 H       1  ZINC000185180600    0.0500
     31 H31       -12.2840   -1.2082   58.4387 H       1  ZINC000185180600    0.0700
     32 H32       -11.4074   -3.4037   59.0826 H       1  ZINC000185180600    0.0500
     33 H33       -11.4979   -3.9660   57.3962 H       1  ZINC000185180600    0.0500
     34 H34       -10.3444   -2.6877   57.8476 H       1  ZINC000185180600    0.0500
     35 H35       -12.2234   -2.3727   55.6200 H       1  ZINC000185180600    0.0700
     36 H36       -13.0382   -0.8528   56.0609 H       1  ZINC000185180600    0.0800
     37 H37       -11.7671    1.1445   56.5949 H       1  ZINC000185180600    0.0600
     38 H38       -11.1652    0.2955   58.0390 H       1  ZINC000185180600    0.0700
     39 H39       -10.0174    1.0539   56.9094 H       1  ZINC000185180600    0.0600
     40 H40       -12.0989    0.6291   53.7916 H       1  ZINC000185180600    0.0600
     41 H41       -11.3772   -0.6919   52.8418 H       1  ZINC000185180600    0.0700
     42 H42       -12.5308   -1.0608   54.1462 H       1  ZINC000185180600    0.0800
     43 H43        -9.0980   -0.8851   52.3422 H       1  ZINC000185180600    0.1500
     44 H44        -9.8399    0.7201   52.5452 H       1  ZINC000185180600    0.1200
     45 H45        -7.3602    0.1567   50.4559 H       1  ZINC000185180600    0.1400
     46 H46        -8.1021    1.7619   50.6589 H       1  ZINC000185180600    0.1000
     47 H47        -3.0200    0.1197   48.6294 H       1  ZINC000185180600    0.1400
     48 H48        -0.6838   -0.3303   47.9996 H       1  ZINC000185180600    0.1500
     49 H49         0.5904    3.0340   50.2950 H       1  ZINC000185180600    0.1400
     50 H50        -1.7441    3.4946   50.9234 H       1  ZINC000185180600    0.1500
     51 H51        -3.8863    4.2582   50.3438 H       1  ZINC000185180600    0.1800
     52 H52        -6.4148    3.9091   50.9587 H       1  ZINC000185180600    0.1700
@<TRIPOS>BOND
     1     1     2    1
     2     1    28    1
     3     1    29    1
     4     1    30    1
     5     2     3    1
     6     2     4    1
     7     2    31    1
     8     3    32    1
     9     3    33    1
    10     3    34    1
    11     4     5    1
    12     4    35    1
    13     4    36    1
    14     5     6    1
    15     5     7    1
    16     5     8    1
    17     7    37    1
    18     7    38    1
    19     7    39    1
    20     8     9    1
    21     8    10   am
    22     9    40    1
    23     9    41    1
    24     9    42    1
    25    10    11    2
    26    10    12    1
    27    12    13    1
    28    12    43    1
    29    12    44    1
    30    13    14    2
    31    13    15    1
    32    15    16    1
    33    15    45    1
    34    15    46    1
    35    16    27    1
    36    16    17    2
    37    17    18    1
    38    18    19    1
    39    18    26    1
    40    19    25   ar
    41    19    20   ar
    42    20    21   ar
    43    20    47    1
    44    21    22   ar
    45    21    48    1
    46    22    23    1
    47    22    24   ar
    48    24    25   ar
    49    24    49    1
    50    25    50    1
    51    26    27    2
    52    26    51    1
    53    27    52    1
@<TRIPOS>SUBSTRUCTURE
     1 ZINC000185180600        1 TEMP              0 ****  ****    0 ROOT


##########                                Name:    ZINC000504243286
##########                DOCK_Rotatable_Bonds:                   7
##########                         Heavy_Atoms:                  29
##########                    Molecular_Weight:             408.337
##########                DOCK_Rotatable_Bonds:                   7
##########                       Formal_Charge:           0.0299994
##########                     HBond_Acceptors:                  11
##########                        HBond_Donors:                   3
##########                         Heavy_Atoms:                  29
##########                          Grid_Score:          -32.570930
##########                     Grid_vdw_energy:          -31.492340
##########                      Grid_es_energy:           -1.078590
##########           Internal_energy_repulsive:           10.155701

@<TRIPOS>MOLECULE
ZINC000504243286
 44 46 1 0 0
SMALL
USER_CHARGES


@<TRIPOS>ATOM
      1 O1        -10.1346   -2.0482   57.0870 O.2     1  ZINC000504243286   -0.5200
      2 C2        -10.5211   -0.9541   57.4402 C.2     1  ZINC000504243286    0.5200
      3 C3        -11.0666   -0.7606   58.8316 C.3     1  ZINC000504243286   -0.1600
      4 C4         -9.9084   -0.5461   59.8081 C.3     1  ZINC000504243286    0.1300
      5 N5        -10.3380    0.3479   60.8863 N.pl3   1  ZINC000504243286   -0.7200
      6 C6         -9.6599    0.3456   62.1074 C.ar    1  ZINC000504243286    0.3100
      7 C7         -8.4169   -0.2651   62.2120 C.ar    1  ZINC000504243286   -0.1900
      8 C8         -7.7487   -0.2652   63.4209 C.ar    1  ZINC000504243286    0.0200
      9 C9         -8.3160    0.3418   64.5261 C.ar    1  ZINC000504243286   -0.2400
     10 C10        -7.5838    0.3402   65.8432 C.3     1  ZINC000504243286    0.5200
     11 F11        -7.8551    1.5289   66.5291 F       1  ZINC000504243286   -0.1700
     12 F12        -8.0085   -0.7489   66.6117 F       1  ZINC000504243286   -0.1700
     13 F13        -6.2078    0.2392   65.6117 F       1  ZINC000504243286   -0.1700
     14 C14        -9.5536    0.9509   64.4253 C.ar    1  ZINC000504243286    0.0400
     15 C15       -10.2246    0.9592   63.2185 C.ar    1  ZINC000504243286   -0.1200
     16 N16       -11.5489    1.6112   63.1117 N.pl3   1  ZINC000504243286    0.0400
     17 O17       -11.8460    2.2249   62.1024 O.2     1  ZINC000504243286   -0.1700
     18 O18       -12.3418    1.5342   64.0331 O.2     1  ZINC000504243286   -0.1400
     19 N19       -10.4575    0.0898   56.5901 N.am    1  ZINC000504243286   -0.6700
     20 C20        -9.9505   -0.0900   55.2967 C.ar    1  ZINC000504243286    0.1200
     21 C21       -10.7062   -0.7497   54.3368 C.ar    1  ZINC000504243286   -0.1000
     22 C22       -10.2100   -0.9279   53.0625 C.ar    1  ZINC000504243286   -0.1200
     23 C23        -8.9454   -0.4474   52.7286 C.ar    1  ZINC000504243286    0.1300
     24 N24        -8.2362   -0.5050   51.5263 N.am    1  ZINC000504243286   -0.6600
     25 C25        -7.0319    0.0837   51.6179 C.2     1  ZINC000504243286    0.5300
     26 O26        -6.2087    0.1814   50.7325 O.2     1  ZINC000504243286   -0.5000
     27 C27        -6.8955    0.6025   53.0335 C.3     1  ZINC000504243286   -0.1200
     28 C28        -8.1965    0.2115   53.6960 C.ar    1  ZINC000504243286   -0.1200
     29 C29        -8.6906    0.3962   54.9666 C.ar    1  ZINC000504243286   -0.0600
     30 H30       -11.7212    0.1107   58.8473 H       1  ZINC000504243286    0.1100
     31 H31       -11.6314   -1.6450   59.1266 H       1  ZINC000504243286    0.1100
     32 H32        -9.6062   -1.5047   60.2297 H       1  ZINC000504243286    0.0800
     33 H33        -9.0659   -0.0996   59.2800 H       1  ZINC000504243286    0.0900
     34 H34       -11.0934    0.9414   60.7522 H       1  ZINC000504243286    0.4100
     35 H35        -7.9734   -0.7397   61.3492 H       1  ZINC000504243286    0.1600
     36 H36        -6.7822   -0.7402   63.5031 H       1  ZINC000504243286    0.1600
     37 H37        -9.9939    1.4242   65.2906 H       1  ZINC000504243286    0.1600
     38 H38       -10.7628    0.9657   56.8739 H       1  ZINC000504243286    0.4200
     39 H39       -11.6868   -1.1252   54.5892 H       1  ZINC000504243286    0.1400
     40 H40       -10.8035   -1.4420   52.3209 H       1  ZINC000504243286    0.1300
     41 H41        -8.5743   -0.9218   50.7183 H       1  ZINC000504243286    0.4100
     42 H42        -6.0532    0.1259   53.5352 H       1  ZINC000504243286    0.1300
     43 H43        -6.7776    1.6861   53.0333 H       1  ZINC000504243286    0.1300
     44 H44        -8.0995    0.9146   55.7070 H       1  ZINC000504243286    0.1500
@<TRIPOS>BOND
     1     1     2    2
     2     2     3    1
     3     2    19   am
     4     3     4    1
     5     3    30    1
     6     3    31    1
     7     4     5    1
     8     4    32    1
     9     4    33    1
    10     5     6    1
    11     5    34    1
    12     6    15   ar
    13     6     7   ar
    14     7     8   ar
    15     7    35    1
    16     8     9   ar
    17     8    36    1
    18     9    10    1
    19     9    14   ar
    20    10    11    1
    21    10    12    1
    22    10    13    1
    23    14    15   ar
    24    14    37    1
    25    15    16    1
    26    16    17    2
    27    16    18    2
    28    19    20    1
    29    19    38    1
    30    20    29   ar
    31    20    21   ar
    32    21    22   ar
    33    21    39    1
    34    22    23   ar
    35    22    40    1
    36    23    28   ar
    37    23    24    1
    38    24    25   am
    39    24    41    1
    40    25    26    2
    41    25    27    1
    42    27    28    1
    43    27    42    1
    44    27    43    1
    45    28    29   ar
    46    29    44    1
@<TRIPOS>SUBSTRUCTURE
     1 ZINC000504243286        1 TEMP              0 ****  ****    0 ROOT


##########                                Name:    ZINC000031496632
##########                DOCK_Rotatable_Bonds:                   8
##########                         Heavy_Atoms:                  30
##########                    Molecular_Weight:             423.539
##########                DOCK_Rotatable_Bonds:                   8
##########                       Formal_Charge:          -0.0100009
##########                     HBond_Acceptors:                   8
##########                        HBond_Donors:                   1
##########                         Heavy_Atoms:                  30
##########                          Grid_Score:          -32.569427
##########                     Grid_vdw_energy:          -31.864798
##########                      Grid_es_energy:           -0.704628
##########           Internal_energy_repulsive:           11.882631

@<TRIPOS>MOLECULE
ZINC000031496632
 55 58 1 0 0
SMALL
USER_CHARGES


@<TRIPOS>ATOM
      1 C1         -5.9221    2.6596   50.3407 C.3     1  ZINC000031496632   -0.1600
      2 C2         -7.1574    2.8222   51.2287 C.3     1  ZINC000031496632    0.1600
      3 C3         -8.3572    3.2182   50.3658 C.3     1  ZINC000031496632   -0.1600
      4 N4         -7.4411    1.5553   51.9075 N.pl3   1  ZINC000031496632   -0.3900
      5 N5         -7.0787    0.2879   51.4412 N.2     1  ZINC000031496632   -0.2300
      6 C6         -7.4784   -0.6276   52.2769 C.2     1  ZINC000031496632    0.0800
      7 C7         -8.1540    0.0450   53.3811 C.ar    1  ZINC000031496632   -0.2100
      8 C8         -8.7813   -0.3937   54.5527 C.ar    1  ZINC000031496632    0.0100
      9 C9         -9.3312    0.5615   55.3934 C.ar    1  ZINC000031496632    0.0500
     10 N10        -9.9702    0.1764   56.5792 N.am    1  ZINC000031496632   -0.6600
     11 C11       -11.1152   -0.5326   56.5282 C.2     1  ZINC000031496632    0.5500
     12 O12       -11.5939   -0.8382   55.4526 O.2     1  ZINC000031496632   -0.4900
     13 C13       -11.7874   -0.9376   57.7755 C.ar    1  ZINC000031496632   -0.1300
     14 C14       -13.1027   -0.5391   58.0266 C.ar    1  ZINC000031496632   -0.0600
     15 C15       -13.7255   -0.9210   59.1948 C.ar    1  ZINC000031496632   -0.1400
     16 C16       -13.0543   -1.6993   60.1247 C.ar    1  ZINC000031496632   -0.0600
     17 C17       -11.7551   -2.1009   59.8925 C.ar    1  ZINC000031496632   -0.1500
     18 C18       -11.1118   -1.7315   58.7170 C.ar    1  ZINC000031496632   -0.0600
     19 S19        -9.4526   -2.2432   58.4168 S.3     1  ZINC000031496632    0.0900
     20 C20        -8.5913   -1.7456   59.9337 C.3     1  ZINC000031496632   -0.2000
     21 C21        -8.3513   -0.2579   59.9100 C.2     1  ZINC000031496632    0.5500
     22 O22        -8.1450    0.3064   58.8565 O.2     1  ZINC000031496632   -0.5200
     23 N23        -8.3656    0.4453   61.0597 N.am    1  ZINC000031496632   -0.6200
     24 C24        -8.5939   -0.1107   62.4014 C.3     1  ZINC000031496632    0.1000
     25 C25        -8.5462    1.0657   63.3991 C.3     1  ZINC000031496632   -0.1300
     26 C26        -8.8567    2.2939   62.5032 C.3     1  ZINC000031496632   -0.1300
     27 C27        -8.1487    1.8985   61.1808 C.3     1  ZINC000031496632    0.1000
     28 C28        -9.2417    1.9088   55.0476 C.ar    1  ZINC000031496632    0.1600
     29 N29        -8.6472    2.2955   53.9407 N.ar    1  ZINC000031496632   -0.4900
     30 C30        -8.0982    1.4252   53.1026 C.ar    1  ZINC000031496632    0.3000
     31 H31        -5.7110    3.6022   49.8356 H       1  ZINC000031496632    0.0800
     32 H32        -5.0673    2.3775   50.9554 H       1  ZINC000031496632    0.0600
     33 H33        -6.1078    1.8833   49.5984 H       1  ZINC000031496632    0.0700
     34 H34        -6.9717    3.5986   51.9709 H       1  ZINC000031496632    0.1100
     35 H35        -8.1461    4.1608   49.8607 H       1  ZINC000031496632    0.0800
     36 H36        -8.5429    2.4419   49.6235 H       1  ZINC000031496632    0.0700
     37 H37        -9.2372    3.3341   50.9983 H       1  ZINC000031496632    0.0600
     38 H38        -7.3357   -1.6929   52.1712 H       1  ZINC000031496632    0.2000
     39 H39        -8.8358   -1.4449   54.7944 H       1  ZINC000031496632    0.1500
     40 H40        -9.5885    0.4201   57.4370 H       1  ZINC000031496632    0.4100
     41 H41       -13.6306    0.0680   57.3061 H       1  ZINC000031496632    0.1300
     42 H42       -14.7424   -0.6120   59.3870 H       1  ZINC000031496632    0.1300
     43 H43       -13.5515   -1.9930   61.0374 H       1  ZINC000031496632    0.1300
     44 H44       -11.2390   -2.7067   60.6226 H       1  ZINC000031496632    0.1300
     45 H45        -9.2027   -2.0011   60.7991 H       1  ZINC000031496632    0.1100
     46 H46        -7.6361   -2.2668   59.9968 H       1  ZINC000031496632    0.1100
     47 H47        -9.5712   -0.5917   62.4419 H       1  ZINC000031496632    0.0700
     48 H48        -7.8130   -0.8323   62.6415 H       1  ZINC000031496632    0.0700
     49 H49        -9.3076    0.9486   64.1702 H       1  ZINC000031496632    0.0900
     50 H50        -7.5552    1.1538   63.8443 H       1  ZINC000031496632    0.0800
     51 H51        -9.9306    2.4087   62.3562 H       1  ZINC000031496632    0.0800
     52 H52        -8.4217    3.2019   62.9208 H       1  ZINC000031496632    0.0900
     53 H53        -7.0840    2.1249   61.2380 H       1  ZINC000031496632    0.0700
     54 H54        -8.6031    2.4180   60.3372 H       1  ZINC000031496632    0.0800
     55 H55        -9.6706    2.6517   55.7037 H       1  ZINC000031496632    0.1700
@<TRIPOS>BOND
     1     1     2    1
     2     1    31    1
     3     1    32    1
     4     1    33    1
     5     2     3    1
     6     2     4    1
     7     2    34    1
     8     3    35    1
     9     3    36    1
    10     3    37    1
    11     4    30    1
    12     4     5    1
    13     5     6    2
    14     6     7    1
    15     6    38    1
    16     7    30   ar
    17     7     8   ar
    18     8     9   ar
    19     8    39    1
    20     9    10    1
    21     9    28   ar
    22    10    11   am
    23    10    40    1
    24    11    12    2
    25    11    13    1
    26    13    18   ar
    27    13    14   ar
    28    14    15   ar
    29    14    41    1
    30    15    16   ar
    31    15    42    1
    32    16    17   ar
    33    16    43    1
    34    17    18   ar
    35    17    44    1
    36    18    19    1
    37    19    20    1
    38    20    21    1
    39    20    45    1
    40    20    46    1
    41    21    22    2
    42    21    23   am
    43    23    27    1
    44    23    24    1
    45    24    25    1
    46    24    47    1
    47    24    48    1
    48    25    26    1
    49    25    49    1
    50    25    50    1
    51    26    27    1
    52    26    51    1
    53    26    52    1
    54    27    53    1
    55    27    54    1
    56    28    29   ar
    57    28    55    1
    58    29    30   ar
@<TRIPOS>SUBSTRUCTURE
     1 ZINC000031496632        1 TEMP              0 ****  ****    0 ROOT


##########                                Name:    ZINC000512239524
##########                DOCK_Rotatable_Bonds:                   9
##########                         Heavy_Atoms:                  31
##########                    Molecular_Weight:             424.518
##########                DOCK_Rotatable_Bonds:                   9
##########                       Formal_Charge:          0.00999919
##########                     HBond_Acceptors:                   7
##########                        HBond_Donors:                   1
##########                         Heavy_Atoms:                  31
##########                          Grid_Score:          -32.558907
##########                     Grid_vdw_energy:          -33.024834
##########                      Grid_es_energy:            0.465927
##########           Internal_energy_repulsive:           29.406237

@<TRIPOS>MOLECULE
ZINC000512239524
 60 63 1 0 0
SMALL
USER_CHARGES


@<TRIPOS>ATOM
      1 C1         -8.0197    3.3642   50.0481 C.3     1  ZINC000512239524   -0.1600
      2 C2         -7.2243    3.0975   51.3277 C.3     1  ZINC000512239524    0.2000
      3 H3         -7.3038    3.9587   51.9910 H       1  ZINC000512239524    0.1100
      4 N4         -7.7631    1.9123   51.9994 N.am    1  ZINC000512239524   -0.7400
      5 C5         -7.6358    1.7780   53.3344 C.2     1  ZINC000512239524    0.7100
      6 O6         -7.0738    2.6407   53.9813 O.2     1  ZINC000512239524   -0.5800
      7 N7         -8.1315    0.6877   53.9524 N.am    1  ZINC000512239524   -0.6300
      8 C8         -8.0057    0.5300   55.4077 C.3     1  ZINC000512239524    0.1300
      9 C9         -9.3956    0.2702   55.9974 C.3     1  ZINC000512239524   -0.1100
     10 C10       -10.0305   -0.9280   55.2879 C.3     1  ZINC000512239524   -0.1000
     11 C11       -11.3840   -1.2076   55.8887 C.2     1  ZINC000512239524    0.5300
     12 O12       -12.3558   -0.5898   55.5081 O.2     1  ZINC000512239524   -0.5300
     13 N13       -11.5145   -2.1443   56.8490 N.am    1  ZINC000512239524   -0.5800
     14 C14       -12.8306   -2.4174   57.4318 C.3     1  ZINC000512239524    0.1500
     15 C15       -13.0543   -1.5103   58.6143 C.ar    1  ZINC000512239524   -0.1100
     16 C16       -13.8143   -1.9444   59.6843 C.ar    1  ZINC000512239524   -0.0900
     17 C17       -14.0194   -1.1123   60.7689 C.ar    1  ZINC000512239524   -0.1200
     18 C18       -13.4645    0.1536   60.7837 C.ar    1  ZINC000512239524   -0.1100
     19 C19       -12.7039    0.5873   59.7141 C.ar    1  ZINC000512239524   -0.1200
     20 C20       -12.4950   -0.2463   58.6313 C.ar    1  ZINC000512239524   -0.1100
     21 C21       -10.3404   -2.8893   57.3100 C.3     1  ZINC000512239524    0.0700
     22 C22        -9.5084   -2.2710   58.4352 C.3     1  ZINC000512239524   -0.1900
     23 C23       -10.3914   -3.4883   58.7169 C.3     1  ZINC000512239524   -0.2000
     24 C24       -10.1886   -0.6157   53.7981 C.3     1  ZINC000512239524   -0.1400
     25 C25        -8.8132   -0.3630   53.1842 C.3     1  ZINC000512239524    0.1100
     26 C26        -5.7769    2.8633   50.9797 C.ar    1  ZINC000512239524   -0.0800
     27 C27        -5.3742    1.6822   50.3766 C.ar    1  ZINC000512239524   -0.1400
     28 C28        -4.0380    1.5026   50.0715 C.ar    1  ZINC000512239524    0.1000
     29 N29        -3.1504    2.4376   50.3475 N.ar    1  ZINC000512239524   -0.4600
     30 C30        -3.4951    3.5741   50.9208 C.ar    1  ZINC000512239524    0.0800
     31 C31        -4.8152    3.8280   51.2504 C.ar    1  ZINC000512239524    0.0600
     32 F32        -5.1620    4.9943   51.8375 F       1  ZINC000512239524   -0.1200
     33 H33        -9.0666    3.5336   50.2997 H       1  ZINC000512239524    0.0700
     34 H34        -7.6189    4.2461   49.5483 H       1  ZINC000512239524    0.0700
     35 H35        -7.9403    2.5030   49.3848 H       1  ZINC000512239524    0.0600
     36 H36        -8.2115    1.2241   51.4833 H       1  ZINC000512239524    0.3900
     37 H37        -7.3515   -0.3133   55.6287 H       1  ZINC000512239524    0.0700
     38 H38        -7.5900    1.4406   55.8393 H       1  ZINC000512239524    0.1000
     39 H39        -9.3047    0.0563   57.0624 H       1  ZINC000512239524    0.0900
     40 H40       -10.0216    1.1511   55.8550 H       1  ZINC000512239524    0.0800
     41 H41        -9.3914   -1.8025   55.4096 H       1  ZINC000512239524    0.1000
     42 H42       -13.6033   -2.2372   56.6844 H       1  ZINC000512239524    0.0900
     43 H43       -12.8752   -3.4566   57.7574 H       1  ZINC000512239524    0.1000
     44 H44       -14.2479   -2.9334   59.6728 H       1  ZINC000512239524    0.1300
     45 H45       -14.6137   -1.4512   61.6046 H       1  ZINC000512239524    0.1200
     46 H46       -13.6254    0.8039   61.6309 H       1  ZINC000512239524    0.1200
     47 H47       -12.2704    1.5765   59.7255 H       1  ZINC000512239524    0.1200
     48 H48       -11.9007    0.0926   57.7956 H       1  ZINC000512239524    0.1200
     49 H49        -9.8097   -3.4525   56.5422 H       1  ZINC000512239524    0.1300
     50 H50        -8.4300   -2.4270   58.4079 H       1  ZINC000512239524    0.1100
     51 H51        -9.8346   -1.3099   58.8325 H       1  ZINC000512239524    0.1000
     52 H52       -11.2985   -3.3280   59.2995 H       1  ZINC000512239524    0.1100
     53 H53        -9.8939   -4.4452   58.8749 H       1  ZINC000512239524    0.1000
     54 H54       -10.6622   -1.4603   53.2976 H       1  ZINC000512239524    0.0900
     55 H55       -10.8073    0.2735   53.6764 H       1  ZINC000512239524    0.0700
     56 H56        -8.9284   -0.0438   52.1485 H       1  ZINC000512239524    0.0800
     57 H57        -8.2219   -1.2779   53.2233 H       1  ZINC000512239524    0.0800
     58 H58        -6.0955    0.9115   50.1481 H       1  ZINC000512239524    0.1400
     59 H59        -3.7170    0.5847   49.6014 H       1  ZINC000512239524    0.1700
     60 H60        -2.7397    4.3164   51.1319 H       1  ZINC000512239524    0.1700
@<TRIPOS>BOND
     1     1     2    1
     2     1    33    1
     3     1    34    1
     4     1    35    1
     5     2     3    1
     6     2     4    1
     7     2    26    1
     8     4     5   am
     9     4    36    1
    10     5     6    2
    11     5     7   am
    12     7    25    1
    13     7     8    1
    14     8     9    1
    15     8    37    1
    16     8    38    1
    17     9    10    1
    18     9    39    1
    19     9    40    1
    20    10    11    1
    21    10    24    1
    22    10    41    1
    23    11    12    2
    24    11    13   am
    25    13    14    1
    26    13    21    1
    27    14    15    1
    28    14    42    1
    29    14    43    1
    30    15    20   ar
    31    15    16   ar
    32    16    17   ar
    33    16    44    1
    34    17    18   ar
    35    17    45    1
    36    18    19   ar
    37    18    46    1
    38    19    20   ar
    39    19    47    1
    40    20    48    1
    41    21    23    1
    42    21    22    1
    43    21    49    1
    44    22    23    1
    45    22    50    1
    46    22    51    1
    47    23    52    1
    48    23    53    1
    49    24    25    1
    50    24    54    1
    51    24    55    1
    52    25    56    1
    53    25    57    1
    54    26    31   ar
    55    26    27   ar
    56    27    28   ar
    57    27    58    1
    58    28    29   ar
    59    28    59    1
    60    29    30   ar
    61    30    31   ar
    62    30    60    1
    63    31    32    1
@<TRIPOS>SUBSTRUCTURE
     1 ZINC000512239524        1 TEMP              0 ****  ****    0 ROOT


##########                                Name:    ZINC001141221454
##########                DOCK_Rotatable_Bonds:                   7
##########                         Heavy_Atoms:                  27
##########                    Molecular_Weight:             369.439
##########                DOCK_Rotatable_Bonds:                   7
##########                       Formal_Charge:          0.00999935
##########                     HBond_Acceptors:                   6
##########                        HBond_Donors:                   1
##########                         Heavy_Atoms:                  27
##########                          Grid_Score:          -32.535431
##########                     Grid_vdw_energy:          -31.811647
##########                      Grid_es_energy:           -0.723784
##########           Internal_energy_repulsive:           12.841155

@<TRIPOS>MOLECULE
ZINC001141221454
 51 54 1 0 0
SMALL
USER_CHARGES


@<TRIPOS>ATOM
      1 C1         -0.9462    4.6429   52.1229 C.3     1  ZINC001141221454    0.0300
      2 O2         -2.3580    4.8169   51.9857 O.3     1  ZINC001141221454   -0.3100
      3 C3         -3.0220    3.9023   51.2300 C.ar    1  ZINC001141221454    0.0900
      4 C4         -2.3208    2.9021   50.5750 C.ar    1  ZINC001141221454   -0.1800
      5 C5         -2.9980    1.9729   49.8077 C.ar    1  ZINC001141221454   -0.0900
      6 C6         -4.3738    2.0398   49.6925 C.ar    1  ZINC001141221454   -0.1200
      7 C7         -5.0773    3.0364   50.3440 C.ar    1  ZINC001141221454   -0.0800
      8 C8         -6.5772    3.1065   50.2157 C.3     1  ZINC001141221454    0.0900
      9 N9         -7.1981    2.5973   51.4457 N.3     1  ZINC001141221454   -0.5100
     10 C10        -8.6057    3.0589   51.5623 C.3     1  ZINC001141221454    0.0300
     11 C11        -9.2342    2.0446   52.5530 C.3     1  ZINC001141221454   -0.0700
     12 C12        -8.5478    0.7221   52.1647 C.3     1  ZINC001141221454   -0.1000
     13 C13        -9.3613   -0.4943   51.7420 C.3     1  ZINC001141221454   -0.1400
     14 C14        -8.6097   -0.4964   53.0763 C.3     1  ZINC001141221454   -0.1800
     15 H15        -7.7160   -1.1161   53.1499 H       1  ZINC001141221454    0.1300
     16 C16        -9.4280   -0.3833   54.3366 C.2     1  ZINC001141221454    0.5500
     17 O17       -10.5129   -0.9212   54.4056 O.2     1  ZINC001141221454   -0.5300
     18 N18        -8.9544    0.3156   55.3872 N.am    1  ZINC001141221454   -0.7300
     19 C19        -9.7507    0.4271   56.6118 C.3     1  ZINC001141221454    0.1700
     20 C20        -9.3834   -0.6906   57.5534 C.ar    1  ZINC001141221454   -0.1600
     21 C21        -8.4481   -0.4852   58.5558 C.ar    1  ZINC001141221454   -0.0600
     22 C22        -8.1417   -1.5423   59.3993 C.ar    1  ZINC001141221454   -0.1700
     23 C23        -8.7740   -2.7569   59.2139 C.ar    1  ZINC001141221454    0.1100
     24 N24        -9.6591   -2.9163   58.2492 N.ar    1  ZINC001141221454   -0.4800
     25 C25        -9.9790   -1.9321   57.4321 C.ar    1  ZINC001141221454    0.1200
     26 C26        -7.2567    1.1175   51.4375 C.3     1  ZINC001141221454    0.0700
     27 C27        -4.4056    3.9652   51.1176 C.ar    1  ZINC001141221454    0.0900
     28 F28        -5.0925    4.9390   51.7542 F       1  ZINC001141221454   -0.1300
     29 H29        -0.5412    5.4382   52.7485 H       1  ZINC001141221454    0.1000
     30 H30        -0.7425    3.6772   52.5857 H       1  ZINC001141221454    0.0600
     31 H31        -0.4782    4.6803   51.1392 H       1  ZINC001141221454    0.0600
     32 H32        -1.2458    2.8488   50.6639 H       1  ZINC001141221454    0.1400
     33 H33        -2.4513    1.1939   49.2972 H       1  ZINC001141221454    0.1300
     34 H34        -4.9002    1.3124   49.0924 H       1  ZINC001141221454    0.1300
     35 H35        -6.8803    4.1413   50.0571 H       1  ZINC001141221454    0.0600
     36 H36        -6.8981    2.5000   49.3688 H       1  ZINC001141221454    0.0900
     37 H37        -8.6463    4.0692   51.9693 H       1  ZINC001141221454    0.0800
     38 H38        -9.1066    3.0126   50.5953 H       1  ZINC001141221454    0.0500
     39 H39        -8.9994    2.3139   53.5827 H       1  ZINC001141221454    0.0900
     40 H40       -10.3122    1.9782   52.4060 H       1  ZINC001141221454    0.0700
     41 H41       -10.4475   -0.4103   51.7761 H       1  ZINC001141221454    0.1000
     42 H42        -8.9619   -1.1126   50.9380 H       1  ZINC001141221454    0.1100
     43 H43        -8.0862    0.7448   55.3325 H       1  ZINC001141221454    0.4000
     44 H44        -9.5498    1.3858   57.0898 H       1  ZINC001141221454    0.0800
     45 H45       -10.8100    0.3598   56.3637 H       1  ZINC001141221454    0.0800
     46 H46        -7.9694    0.4754   58.6769 H       1  ZINC001141221454    0.1400
     47 H47        -7.4175   -1.4181   60.1909 H       1  ZINC001141221454    0.1400
     48 H48        -8.5406   -3.5852   59.8663 H       1  ZINC001141221454    0.1600
     49 H49       -10.7083   -2.1004   56.6536 H       1  ZINC001141221454    0.1600
     50 H50        -7.2795    0.7510   50.4112 H       1  ZINC001141221454    0.0500
     51 H51        -6.3932    0.7072   51.9611 H       1  ZINC001141221454    0.0900
@<TRIPOS>BOND
     1     1     2    1
     2     1    29    1
     3     1    30    1
     4     1    31    1
     5     2     3    1
     6     3    27   ar
     7     3     4   ar
     8     4     5   ar
     9     4    32    1
    10     5     6   ar
    11     5    33    1
    12     6     7   ar
    13     6    34    1
    14     7     8    1
    15     7    27   ar
    16     8     9    1
    17     8    35    1
    18     8    36    1
    19     9    26    1
    20     9    10    1
    21    10    11    1
    22    10    37    1
    23    10    38    1
    24    11    12    1
    25    11    39    1
    26    11    40    1
    27    12    14    1
    28    12    13    1
    29    12    26    1
    30    13    14    1
    31    13    41    1
    32    13    42    1
    33    14    15    1
    34    14    16    1
    35    16    17    2
    36    16    18   am
    37    18    19    1
    38    18    43    1
    39    19    20    1
    40    19    44    1
    41    19    45    1
    42    20    25   ar
    43    20    21   ar
    44    21    22   ar
    45    21    46    1
    46    22    23   ar
    47    22    47    1
    48    23    24   ar
    49    23    48    1
    50    24    25   ar
    51    25    49    1
    52    26    50    1
    53    26    51    1
    54    27    28    1
@<TRIPOS>SUBSTRUCTURE
     1 ZINC001141221454        1 TEMP              0 ****  ****    0 ROOT


##########                                Name:     oleObject79.pdb
##########                DOCK_Rotatable_Bonds:                  12
##########                         Heavy_Atoms:                  53
##########                    Molecular_Weight:             725.376
##########                DOCK_Rotatable_Bonds:                  12
##########                       Formal_Charge:          0.00050066
##########                     HBond_Acceptors:                   8
##########                        HBond_Donors:                   4
##########                         Heavy_Atoms:                  53
##########                          Grid_Score:          -32.529030
##########                     Grid_vdw_energy:          -32.550507
##########                      Grid_es_energy:            0.021477
##########           Internal_energy_repulsive:          141.485764

@<TRIPOS>MOLECULE
oleObject79.pdb
 102 108 1 0 0
SMALL
NO_CHARGES


@<TRIPOS>ATOM
      1 C         -13.3425    3.3961   59.6767 C.ar    1  UNL        -0.0620
      2 C         -14.4573    2.5475   59.6318 C.ar    1  UNL        -0.0590
      3 C         -14.3116    1.1801   59.3263 C.ar    1  UNL        -0.0456
      4 C         -13.0200    0.6514   59.0628 C.ar    1  UNL        -0.0185
      5 C         -11.9100    1.5224   59.1134 C.ar    1  UNL        -0.0565
      6 C         -12.0669    2.8823   59.4167 C.ar    1  UNL        -0.0619
      7 C         -12.7911   -0.8465   58.7765 C.3     1  UNL         0.0931
      8 C         -14.0686   -1.6603   58.4973 C.ar    1  UNL         0.0683
      9 C         -14.7503   -2.3434   59.5368 C.ar    1  UNL        -0.0272
     10 C         -15.9124   -3.0692   59.2135 C.ar    1  UNL        -0.0559
     11 C         -16.3573   -3.0916   57.8840 C.ar    1  UNL        -0.0435
     12 C         -15.6240   -2.3861   56.9190 C.ar    1  UNL         0.0272
     13 N         -14.5112   -1.6907   57.2184 N.ar    1  UNL        -0.2587
     14 C         -14.2668   -2.3179   60.9832 C.3     1  UNL        -0.0379
     15 N         -11.6986   -1.0473   57.7837 N.am    1  UNL        -0.2918
     16 C         -11.7599   -0.4326   56.5311 C.2     1  UNL         0.2179
     17 O         -10.7526   -0.3280   55.8510 O.2     1  UNL        -0.2772
     18 C         -13.0067    0.4487   56.2500 C.3     1  UNL         0.0361
     19 C         -13.7717    0.0341   54.9604 C.3     1  UNL        -0.0412
     20 C         -13.0443    0.4288   53.6454 C.3     1  UNL        -0.0453
     21 C         -12.6030    1.9213   53.5770 C.3     1  UNL        -0.0139
     22 C         -11.6125    2.0875   52.3912 C.3     1  UNL         0.0171
     23 N         -11.2363    3.5040   52.2082 N.pl3   1  UNL        -0.3290
     24 C         -12.3727    4.3914   51.8924 C.3     1  UNL         0.0115
     25 C         -13.4552    4.3026   52.9940 C.3     1  UNL        -0.0368
     26 C         -13.8412    2.8352   53.3075 C.3     1  UNL        -0.0446
     27 C          -9.8990    3.9036   52.1136 C.ar    1  UNL         0.0476
     28 C          -9.1356    3.4775   51.0092 C.ar    1  UNL        -0.0375
     29 C          -7.7825    3.8289   50.8876 C.ar    1  UNL        -0.0388
     30 C          -7.1532    4.5967   51.8795 C.ar    1  UNL         0.0318
     31 C          -7.9128    5.0414   52.9771 C.ar    1  UNL        -0.0202
     32 C          -9.2694    4.6970   53.1019 C.ar    1  UNL         0.0636
     33 CL        -10.0987    5.2353   54.5524 Cl      1  UNL        -0.0822
     34 N          -5.8081    4.9261   51.7251 N.pl3   1  UNL        -0.3149
     35 C          -4.7144    4.1722   51.3028 C.ar    1  UNL         0.0302
     36 C          -4.8619    2.9142   50.6899 C.ar    1  UNL        -0.0402
     37 C          -3.7373    2.1957   50.2536 C.ar    1  UNL        -0.0525
     38 C          -2.4271    2.7130   50.4077 C.ar    1  UNL        -0.0182
     39 C          -2.2985    3.9892   51.0100 C.ar    1  UNL        -0.0525
     40 C          -3.4245    4.7092   51.4415 C.ar    1  UNL        -0.0402
     41 C          -1.2236    1.9458   49.9421 C.ar    1  UNL        -0.0177
     42 C           0.0911    2.3985   50.2216 C.ar    1  UNL        -0.0439
     43 C           1.2336    1.6907   49.7886 C.ar    1  UNL         0.0111
     44 C           1.0525    0.4995   49.0558 C.ar    1  UNL        -0.0518
     45 C          -0.2370    0.0302   48.7678 C.ar    1  UNL        -0.0609
     46 C          -1.3618    0.7437   49.2063 C.ar    1  UNL        -0.0543
     47 C           2.5183    2.1587   50.0829 C.2     1  UNL         0.1014
     48 N           3.5761    1.5385   49.7079 N.3     1  UNL        -0.2892
     49 N           2.6951    3.2870   50.7838 N.3     1  UNL        -0.2870
     50 C         -11.8672    2.3048   54.8987 C.3     1  UNL        -0.0453
     51 C         -12.6642    1.9595   56.1747 C.3     1  UNL        -0.0412
     52 C         -10.5454   -1.8850   58.1795 C.3     1  UNL         0.0037
     53 C         -15.5651    0.3116   59.3167 C.3     1  UNL        -0.0394
     54 H         -13.4654    4.4478   59.9163 H       1  UNL         0.0623
     55 H         -15.4416    2.9557   59.8424 H       1  UNL         0.0626
     56 H         -10.9124    1.1439   58.9173 H       1  UNL         0.0627
     57 H         -11.1997    3.5351   59.4527 H       1  UNL         0.0623
     58 H         -12.4211   -1.2802   59.7068 H       1  UNL         0.0626
     59 H         -16.4635   -3.6067   59.9799 H       1  UNL         0.0627
     60 H         -17.2514   -3.6422   57.6069 H       1  UNL         0.0639
     61 H         -15.9359   -2.3758   55.8753 H       1  UNL         0.0840
     62 H         -13.2640   -2.7525   61.0742 H       1  UNL         0.0280
     63 H         -14.9308   -2.8919   61.6414 H       1  UNL         0.0280
     64 H         -14.2301   -1.2929   61.3725 H       1  UNL         0.0280
     65 H         -13.6925    0.2960   57.0921 H       1  UNL         0.0401
     66 H         -14.7602    0.5106   54.9709 H       1  UNL         0.0275
     67 H         -13.9562   -1.0479   54.9688 H       1  UNL         0.0275
     68 H         -13.6918    0.1906   52.7916 H       1  UNL         0.0273
     69 H         -12.1602   -0.2079   53.5234 H       1  UNL         0.0273
     70 H         -12.0773    1.7134   51.4697 H       1  UNL         0.0474
     71 H         -10.7192    1.4782   52.5821 H       1  UNL         0.0474
     72 H         -12.8124    4.0829   50.9354 H       1  UNL         0.0468
     73 H         -12.0413    5.4311   51.7806 H       1  UNL         0.0468
     74 H         -14.3462    4.8588   52.6773 H       1  UNL         0.0283
     75 H         -13.0933    4.7920   53.9059 H       1  UNL         0.0283
     76 H         -14.3922    2.4415   52.4432 H       1  UNL         0.0273
     77 H         -14.5427    2.8133   54.1495 H       1  UNL         0.0273
     78 H          -9.5952    2.8742   50.2317 H       1  UNL         0.0644
     79 H          -7.2168    3.4882   50.0250 H       1  UNL         0.0643
     80 H          -7.4548    5.6620   53.7409 H       1  UNL         0.0659
     81 H          -5.5887    5.8904   51.9394 H       1  UNL         0.1528
     82 H          -5.8483    2.4928   50.5302 H       1  UNL         0.0643
     83 H          -3.8904    1.2207   49.8016 H       1  UNL         0.0630
     84 H          -1.3184    4.4405   51.1273 H       1  UNL         0.0630
     85 H          -3.2918    5.6888   51.8923 H       1  UNL         0.0643
     86 H           0.2233    3.3125   50.7922 H       1  UNL         0.0637
     87 H           1.9093   -0.0760   48.7164 H       1  UNL         0.0630
     88 H          -0.3653   -0.8886   48.2024 H       1  UNL         0.0623
     89 H          -2.3481    0.3667   48.9544 H       1  UNL         0.0629
     90 H           3.8785    1.8641   48.7874 H       1  UNL         0.1889
     91 H           2.7643    4.1801   50.2993 H       1  UNL         0.1258
     92 H           2.1503    3.4416   51.6303 H       1  UNL         0.1258
     93 H         -11.6119    3.3701   54.9163 H       1  UNL         0.0273
     94 H         -10.9106    1.7710   54.9347 H       1  UNL         0.0273
     95 H         -13.5921    2.5433   56.1985 H       1  UNL         0.0275
     96 H         -12.0958    2.2780   57.0546 H       1  UNL         0.0275
     97 H         -10.3545   -2.6626   57.4317 H       1  UNL         0.0433
     98 H         -10.7205   -2.3820   59.1404 H       1  UNL         0.0433
     99 H          -9.6533   -1.2529   58.2699 H       1  UNL         0.0433
    100 H         -16.4739    0.9060   59.4732 H       1  UNL         0.0280
    101 H         -15.5271   -0.4412   60.1141 H       1  UNL         0.0280
    102 H         -15.6785   -0.2090   58.3575 H       1  UNL         0.0280
@<TRIPOS>BOND
     1     1     2   ar
     2     1     6   ar
     3     1    54    1
     4     2     3   ar
     5     2    55    1
     6     3     4   ar
     7     3    53    1
     8     4     5   ar
     9     4     7    1
    10     5     6   ar
    11     5    56    1
    12     6    57    1
    13     7     8    1
    14     7    15    1
    15     7    58    1
    16     8     9   ar
    17     8    13   ar
    18     9    10   ar
    19     9    14    1
    20    10    11   ar
    21    10    59    1
    22    11    12   ar
    23    11    60    1
    24    12    13   ar
    25    12    61    1
    26    14    62    1
    27    14    63    1
    28    14    64    1
    29    15    16   am
    30    15    52    1
    31    16    17    2
    32    16    18    1
    33    18    19    1
    34    18    51    1
    35    18    65    1
    36    19    20    1
    37    19    66    1
    38    19    67    1
    39    20    21    1
    40    20    68    1
    41    20    69    1
    42    21    22    1
    43    21    26    1
    44    21    50    1
    45    22    23    1
    46    22    70    1
    47    22    71    1
    48    23    24    1
    49    23    27    1
    50    24    25    1
    51    24    72    1
    52    24    73    1
    53    25    26    1
    54    25    74    1
    55    25    75    1
    56    26    76    1
    57    26    77    1
    58    27    28   ar
    59    27    32   ar
    60    28    29   ar
    61    28    78    1
    62    29    30   ar
    63    29    79    1
    64    30    31   ar
    65    30    34    1
    66    31    32   ar
    67    31    80    1
    68    32    33    1
    69    34    35    1
    70    34    81    1
    71    35    36   ar
    72    35    40   ar
    73    36    37   ar
    74    36    82    1
    75    37    38   ar
    76    37    83    1
    77    38    39   ar
    78    38    41    1
    79    39    40   ar
    80    39    84    1
    81    40    85    1
    82    41    42   ar
    83    41    46   ar
    84    42    43   ar
    85    42    86    1
    86    43    44   ar
    87    43    47    1
    88    44    45   ar
    89    44    87    1
    90    45    46   ar
    91    45    88    1
    92    46    89    1
    93    47    48    1
    94    47    49    1
    95    48    90    1
    96    49    91    1
    97    49    92    1
    98    50    51    1
    99    50    93    1
   100    50    94    1
   101    51    95    1
   102    51    96    1
   103    52    97    1
   104    52    98    1
   105    52    99    1
   106    53   100    1
   107    53   101    1
   108    53   102    1
@<TRIPOS>SUBSTRUCTURE
     1 UNL         1 TEMP              0 ****  ****    0 ROOT


##########                                Name:    ZINC000906038034
##########                DOCK_Rotatable_Bonds:                   5
##########                         Heavy_Atoms:                  23
##########                    Molecular_Weight:             387.428
##########                DOCK_Rotatable_Bonds:                   5
##########                       Formal_Charge:         -0.00999987
##########                     HBond_Acceptors:                  12
##########                        HBond_Donors:                   0
##########                         Heavy_Atoms:                  23
##########                          Grid_Score:          -32.518776
##########                     Grid_vdw_energy:          -28.546202
##########                      Grid_es_energy:           -3.972576
##########           Internal_energy_repulsive:            2.556939

@<TRIPOS>MOLECULE
ZINC000906038034
 35 36 1 0 0
SMALL
USER_CHARGES


@<TRIPOS>ATOM
      1 C1         -7.5827    0.2415   50.4930 C.3     1  ZINC000906038034    0.1000
      2 N2         -7.7977    0.3088   51.9406 N.pl3   1  ZINC000906038034   -0.3700
      3 C3         -7.1539    1.1283   52.7999 C.2     1  ZINC000906038034    0.0600
      4 C4         -7.6305    0.8904   54.0406 C.2     1  ZINC000906038034   -0.2500
      5 C5         -8.6101   -0.1192   53.9410 C.2     1  ZINC000906038034    0.1200
      6 C6         -9.3909   -0.6882   55.0607 C.2     1  ZINC000906038034    0.1500
      7 N7         -9.3559   -0.2727   56.2944 N.2     1  ZINC000906038034   -0.4300
      8 C8        -10.1212   -0.9009   57.1578 C.2     1  ZINC000906038034    0.0600
      9 C9        -10.1698   -0.5145   58.6135 C.3     1  ZINC000906038034   -0.5300
     10 S10        -8.8412   -1.3646   59.5095 S.o2    1  ZINC000906038034    2.4200
     11 O11        -9.0997   -2.7616   59.4839 O.2     1  ZINC000906038034   -0.9100
     12 O12        -7.5927   -0.8811   59.0334 O.2     1  ZINC000906038034   -0.9200
     13 C13        -9.0863   -0.7624   61.2030 C.3     1  ZINC000906038034   -0.6100
     14 C14        -9.0636    0.7674   61.2088 C.3     1  ZINC000906038034   -0.4500
     15 S15        -8.5057    1.3578   62.8307 S.o     1  ZINC000906038034    1.3300
     16 O16        -9.4412    0.9645   63.8254 O.2     1  ZINC000906038034   -0.7600
     17 C17        -8.5447    3.1617   62.6438 C.3     1  ZINC000906038034    0.1200
     18 F18        -9.8478    3.5713   62.3416 F       1  ZINC000906038034   -0.1900
     19 F19        -8.1318    3.7632   63.8375 F       1  ZINC000906038034   -0.1700
     20 F20        -7.6843    3.5419   61.6081 F       1  ZINC000906038034   -0.1600
     21 C21       -10.8544   -1.9039   56.6649 C.2     1  ZINC000906038034   -0.2300
     22 S22       -10.5235   -2.0321   54.9384 S.3     1  ZINC000906038034    0.1600
     23 N23        -8.7106   -0.4614   52.6722 N.2     1  ZINC000906038034   -0.2400
     24 H24        -8.2494    0.9445   49.9936 H       1  ZINC000906038034    0.0800
     25 H25        -6.5479    0.4990   50.2670 H       1  ZINC000906038034    0.0900
     26 H26        -7.7907   -0.7691   50.1413 H       1  ZINC000906038034    0.0900
     27 H27        -6.3912    1.8475   52.5402 H       1  ZINC000906038034    0.1800
     28 H28        -7.3169    1.3849   54.9481 H       1  ZINC000906038034    0.1600
     29 H29       -10.0397    0.5636   58.7078 H       1  ZINC000906038034    0.1500
     30 H30       -11.1334   -0.8022   59.0339 H       1  ZINC000906038034    0.1600
     31 H31       -10.0479   -1.1129   61.5778 H       1  ZINC000906038034    0.1500
     32 H32        -8.2880   -1.1400   61.8420 H       1  ZINC000906038034    0.1500
     33 H33        -8.3804    1.1234   60.4377 H       1  ZINC000906038034    0.1600
     34 H34       -10.0659    1.1464   61.0091 H       1  ZINC000906038034    0.1300
     35 H35       -11.5356   -2.5258   57.2268 H       1  ZINC000906038034    0.1900
@<TRIPOS>BOND
     1     1     2    1
     2     1    24    1
     3     1    25    1
     4     1    26    1
     5     2    23    1
     6     2     3    1
     7     3     4    2
     8     3    27    1
     9     4     5    1
    10     4    28    1
    11     5     6    1
    12     5    23    2
    13     6    22    1
    14     6     7    2
    15     7     8    1
    16     8     9    1
    17     8    21    2
    18     9    10    1
    19     9    29    1
    20     9    30    1
    21    10    11    2
    22    10    12    2
    23    10    13    1
    24    13    14    1
    25    13    31    1
    26    13    32    1
    27    14    15    1
    28    14    33    1
    29    14    34    1
    30    15    16    2
    31    15    17    1
    32    17    18    1
    33    17    19    1
    34    17    20    1
    35    21    22    1
    36    21    35    1
@<TRIPOS>SUBSTRUCTURE
     1 ZINC000906038034        1 TEMP              0 ****  ****    0 ROOT


##########                                Name:    ZINC001064463188
##########                DOCK_Rotatable_Bonds:                   6
##########                         Heavy_Atoms:                  25
##########                    Molecular_Weight:             342.441
##########                DOCK_Rotatable_Bonds:                   6
##########                       Formal_Charge:          -0.0100004
##########                     HBond_Acceptors:                   6
##########                        HBond_Donors:                   0
##########                         Heavy_Atoms:                  25
##########                          Grid_Score:          -32.514660
##########                     Grid_vdw_energy:          -32.258389
##########                      Grid_es_energy:           -0.256270
##########           Internal_energy_repulsive:           19.433079

@<TRIPOS>MOLECULE
ZINC001064463188
 51 54 1 0 0
SMALL
USER_CHARGES


@<TRIPOS>ATOM
      1 C1         -7.7925   -0.1112   51.2386 C.3     1  ZINC001064463188    0.0400
      2 O2         -8.3245   -0.9557   52.2613 O.3     1  ZINC001064463188   -0.3000
      3 C3         -8.4791   -0.4093   53.4917 C.ar    1  ZINC001064463188    0.3900
      4 C4         -7.8283    0.7775   53.8249 C.ar    1  ZINC001064463188   -0.2800
      5 C5         -8.0147    1.2990   55.0915 C.ar    1  ZINC001064463188    0.2000
      6 N6         -8.8004    0.6607   55.9454 N.ar    1  ZINC001064463188   -0.5800
      7 C7         -9.4062   -0.4659   55.6005 C.ar    1  ZINC001064463188    0.5300
      8 N8        -10.2201   -1.1036   56.5205 N.3     1  ZINC001064463188   -0.4500
      9 C9        -11.4630   -0.3623   56.7223 C.3     1  ZINC001064463188    0.0700
     10 C10       -11.8015   -0.2954   58.2163 C.3     1  ZINC001064463188   -0.1200
     11 C11       -12.1504   -1.6587   58.7823 C.3     1  ZINC001064463188    0.1400
     12 H12       -12.3276   -1.5812   59.8550 H       1  ZINC001064463188    0.0900
     13 C13       -13.3779   -2.2581   58.0932 C.3     1  ZINC001064463188   -0.1300
     14 C14       -12.7987   -3.0427   56.9028 C.3     1  ZINC001064463188   -0.1300
     15 C15       -11.3064   -3.2018   57.2138 C.3     1  ZINC001064463188    0.1200
     16 H16       -11.0505   -4.2605   57.2555 H       1  ZINC001064463188    0.0900
     17 C17       -10.4641   -2.5163   56.1268 C.3     1  ZINC001064463188    0.0600
     18 N18       -10.9943   -2.5658   58.5217 N.am    1  ZINC001064463188   -0.6000
     19 C19        -9.9066   -2.7690   59.2912 C.2     1  ZINC001064463188    0.5800
     20 O20        -9.0457   -3.5499   58.9331 O.2     1  ZINC001064463188   -0.5400
     21 C21        -9.7606   -2.0463   60.5641 C.2     1  ZINC001064463188   -0.2200
     22 C22        -8.9273   -1.0134   60.6505 C.2     1  ZINC001064463188    0.0000
     23 C23        -8.1327   -0.5833   59.4444 C.3     1  ZINC001064463188   -0.1300
     24 C24        -8.7778   -0.2729   61.9545 C.3     1  ZINC001064463188   -0.1200
     25 C25        -8.2607    1.1658   61.8946 C.3     1  ZINC001064463188   -0.1900
     26 C26        -9.7314    0.8942   62.2176 C.3     1  ZINC001064463188   -0.1600
     27 N27        -9.2570   -0.9939   54.3948 N.ar    1  ZINC001064463188   -0.5900
     28 H28        -6.8013    0.2346   51.5322 H       1  ZINC001064463188    0.0600
     29 H29        -7.7206   -0.6710   50.3061 H       1  ZINC001064463188    0.1000
     30 H30        -8.4496    0.7469   51.0976 H       1  ZINC001064463188    0.0600
     31 H31        -7.1924    1.2781   53.1098 H       1  ZINC001064463188    0.1500
     32 H32        -7.5246    2.2167   55.3816 H       1  ZINC001064463188    0.1800
     33 H33       -11.3478    0.6489   56.3323 H       1  ZINC001064463188    0.0800
     34 H34       -12.2723   -0.8625   56.1905 H       1  ZINC001064463188    0.0600
     35 H35       -10.9431    0.1035   58.7566 H       1  ZINC001064463188    0.0800
     36 H36       -12.6496    0.3746   58.3577 H       1  ZINC001064463188    0.0800
     37 H37       -13.9063   -2.9286   58.7709 H       1  ZINC001064463188    0.0800
     38 H38       -14.0419   -1.4681   57.7423 H       1  ZINC001064463188    0.0900
     39 H39       -13.2753   -4.0201   56.8263 H       1  ZINC001064463188    0.0800
     40 H40       -12.9345   -2.4817   55.9781 H       1  ZINC001064463188    0.0800
     41 H41       -11.0078   -2.5274   55.1822 H       1  ZINC001064463188    0.0700
     42 H42        -9.5174   -3.0441   56.0116 H       1  ZINC001064463188    0.0900
     43 H43       -10.3301   -2.3545   61.4284 H       1  ZINC001064463188    0.1200
     44 H44        -8.7008    0.1561   58.8798 H       1  ZINC001064463188    0.0800
     45 H45        -7.1884   -0.1460   59.7685 H       1  ZINC001064463188    0.0800
     46 H46        -7.9343   -1.4491   58.8124 H       1  ZINC001064463188    0.0700
     47 H47        -8.4783   -0.8806   62.8085 H       1  ZINC001064463188    0.1400
     48 H48        -7.6208    1.5049   62.7093 H       1  ZINC001064463188    0.1000
     49 H49        -8.0288    1.5768   60.9121 H       1  ZINC001064463188    0.1000
     50 H50       -10.4669    1.1266   61.4475 H       1  ZINC001064463188    0.0900
     51 H51       -10.0590    1.0548   63.2447 H       1  ZINC001064463188    0.1000
@<TRIPOS>BOND
     1     1     2    1
     2     1    28    1
     3     1    29    1
     4     1    30    1
     5     2     3    1
     6     3    27   ar
     7     3     4   ar
     8     4     5   ar
     9     4    31    1
    10     5     6   ar
    11     5    32    1
    12     6     7   ar
    13     7     8    1
    14     7    27   ar
    15     8    17    1
    16     8     9    1
    17     9    10    1
    18     9    33    1
    19     9    34    1
    20    10    11    1
    21    10    35    1
    22    10    36    1
    23    11    12    1
    24    11    18    1
    25    11    13    1
    26    13    14    1
    27    13    37    1
    28    13    38    1
    29    14    15    1
    30    14    39    1
    31    14    40    1
    32    15    16    1
    33    15    17    1
    34    15    18    1
    35    17    41    1
    36    17    42    1
    37    18    19   am
    38    19    20    2
    39    19    21    1
    40    21    22    2
    41    21    43    1
    42    22    23    1
    43    22    24    1
    44    23    44    1
    45    23    45    1
    46    23    46    1
    47    24    26    1
    48    24    25    1
    49    24    47    1
    50    25    26    1
    51    25    48    1
    52    25    49    1
    53    26    50    1
    54    26    51    1
@<TRIPOS>SUBSTRUCTURE
     1 ZINC001064463188        1 TEMP              0 ****  ****    0 ROOT


##########                                Name:    ZINC000195331548
##########                DOCK_Rotatable_Bonds:                   7
##########                         Heavy_Atoms:                  26
##########                    Molecular_Weight:             378.539
##########                DOCK_Rotatable_Bonds:                   7
##########                       Formal_Charge:          -0.0100004
##########                     HBond_Acceptors:                   7
##########                        HBond_Donors:                   2
##########                         Heavy_Atoms:                  26
##########                          Grid_Score:          -32.514599
##########                     Grid_vdw_energy:          -29.424690
##########                      Grid_es_energy:           -3.089908
##########           Internal_energy_repulsive:           31.716970

@<TRIPOS>MOLECULE
ZINC000195331548
 56 58 1 0 0
SMALL
USER_CHARGES


@<TRIPOS>ATOM
      1 C1        -10.7687   -2.4542   56.1642 C.3     1  ZINC000195331548   -0.0800
      2 C2        -10.1469   -2.2795   57.5257 C.2     1  ZINC000195331548    0.0700
      3 C3        -10.1644   -3.2379   58.4570 C.2     1  ZINC000195331548   -0.2600
      4 S4         -9.3287   -2.6247   59.8818 S.3     1  ZINC000195331548    0.1100
      5 C5         -9.0462   -1.1377   59.0867 C.2     1  ZINC000195331548    0.0600
      6 C6         -8.3189    0.0374   59.6879 C.3     1  ZINC000195331548   -0.0100
      7 H7         -7.5202   -0.3217   60.3370 H       1  ZINC000195331548    0.1100
      8 C8         -9.3004    0.8825   60.5046 C.3     1  ZINC000195331548   -0.1200
      9 C9         -8.5673    2.1058   61.0620 C.3     1  ZINC000195331548   -0.1100
     10 C10        -7.9633    2.9037   59.9042 C.3     1  ZINC000195331548    0.0500
     11 N11        -7.0313    2.0517   59.1545 N.3     1  ZINC000195331548   -0.5200
     12 C12        -6.3285    2.8231   58.1204 C.3     1  ZINC000195331548    0.0400
     13 C13        -7.1964    2.9245   56.8928 C.2     1  ZINC000195331548    0.5100
     14 O14        -8.3116    3.3927   56.9757 O.2     1  ZINC000195331548   -0.4400
     15 N15        -6.7329    2.4946   55.7024 N.am    1  ZINC000195331548   -0.7000
     16 C16        -7.5097    2.5837   54.6046 C.2     1  ZINC000195331548    0.6900
     17 O17        -8.6288    3.0505   54.6883 O.2     1  ZINC000195331548   -0.5300
     18 N18        -7.0456    2.1554   53.4141 N.am    1  ZINC000195331548   -0.7300
     19 C19        -7.8894    2.2540   52.2205 C.3     1  ZINC000195331548    0.1700
     20 H20        -8.9035    2.5250   52.5138 H       1  ZINC000195331548    0.0900
     21 C21        -7.9105    0.9054   51.4981 C.3     1  ZINC000195331548   -0.1300
     22 C22        -6.4870    0.5249   51.0864 C.3     1  ZINC000195331548   -0.1200
     23 C23        -5.9233    1.5960   50.1504 C.3     1  ZINC000195331548   -0.1200
     24 C24        -5.9021    2.9446   50.8727 C.3     1  ZINC000195331548   -0.1100
     25 C25        -7.3257    3.3250   51.2845 C.3     1  ZINC000195331548   -0.1000
     26 H26        -7.9534    3.3984   50.3965 H       1  ZINC000195331548    0.0900
     27 C27        -7.3044    4.6736   52.0070 C.3     1  ZINC000195331548   -0.1500
     28 C28        -7.7221    0.8953   58.5700 C.3     1  ZINC000195331548    0.0600
     29 N29        -9.5409   -1.1692   57.8955 N.2     1  ZINC000195331548   -0.4700
     30 H30       -10.0285   -2.8626   55.4763 H       1  ZINC000195331548    0.0800
     31 H31       -11.6143   -3.1384   56.2360 H       1  ZINC000195331548    0.0800
     32 H32       -11.1135   -1.4881   55.7954 H       1  ZINC000195331548    0.0800
     33 H33       -10.6089   -4.2166   58.3531 H       1  ZINC000195331548    0.1800
     34 H34       -10.1199    1.2093   59.8645 H       1  ZINC000195331548    0.0600
     35 H35        -9.6961    0.2875   61.3277 H       1  ZINC000195331548    0.0700
     36 H36        -9.2706    2.7336   61.6088 H       1  ZINC000195331548    0.0800
     37 H37        -7.7724    1.7794   61.7327 H       1  ZINC000195331548    0.0800
     38 H38        -7.4283    3.7677   60.2986 H       1  ZINC000195331548    0.0800
     39 H39        -8.7599    3.2415   59.2414 H       1  ZINC000195331548    0.0400
     40 H40        -5.3949    2.3218   57.8650 H       1  ZINC000195331548    0.1200
     41 H41        -6.1130    3.8231   58.4966 H       1  ZINC000195331548    0.0700
     42 H42        -5.8402    2.1210   55.6358 H       1  ZINC000195331548    0.4100
     43 H43        -6.1529    1.7818   53.3474 H       1  ZINC000195331548    0.4000
     44 H44        -8.5383    0.9788   50.6100 H       1  ZINC000195331548    0.0700
     45 H45        -8.3122    0.1423   52.1648 H       1  ZINC000195331548    0.0700
     46 H46        -6.5021   -0.4358   50.5716 H       1  ZINC000195331548    0.0600
     47 H47        -5.8593    0.4516   51.9743 H       1  ZINC000195331548    0.0600
     48 H48        -4.9091    1.3250   49.8570 H       1  ZINC000195331548    0.0600
     49 H49        -6.5511    1.6694   49.2623 H       1  ZINC000195331548    0.0600
     50 H50        -5.2743    2.8712   51.7608 H       1  ZINC000195331548    0.0600
     51 H51        -5.5006    3.7077   50.2060 H       1  ZINC000195331548    0.0700
     52 H52        -6.6767    4.6003   52.8950 H       1  ZINC000195331548    0.0500
     53 H53        -6.9029    5.4367   51.3401 H       1  ZINC000195331548    0.0600
     54 H54        -8.3186    4.9447   52.3003 H       1  ZINC000195331548    0.0600
     55 H55        -8.5199    1.2425   57.9134 H       1  ZINC000195331548    0.0400
     56 H56        -7.0121    0.3004   57.9954 H       1  ZINC000195331548    0.0900
@<TRIPOS>BOND
     1     1     2    1
     2     1    30    1
     3     1    31    1
     4     1    32    1
     5     2    29    1
     6     2     3    2
     7     3     4    1
     8     3    33    1
     9     4     5    1
    10     5     6    1
    11     5    29    2
    12     6     7    1
    13     6    28    1
    14     6     8    1
    15     8     9    1
    16     8    34    1
    17     8    35    1
    18     9    10    1
    19     9    36    1
    20     9    37    1
    21    10    11    1
    22    10    38    1
    23    10    39    1
    24    11    12    1
    25    11    28    1
    26    12    13    1
    27    12    40    1
    28    12    41    1
    29    13    14    2
    30    13    15   am
    31    15    16   am
    32    15    42    1
    33    16    17    2
    34    16    18   am
    35    18    19    1
    36    18    43    1
    37    19    20    1
    38    19    25    1
    39    19    21    1
    40    21    22    1
    41    21    44    1
    42    21    45    1
    43    22    23    1
    44    22    46    1
    45    22    47    1
    46    23    24    1
    47    23    48    1
    48    23    49    1
    49    24    25    1
    50    24    50    1
    51    24    51    1
    52    25    26    1
    53    25    27    1
    54    27    52    1
    55    27    53    1
    56    27    54    1
    57    28    55    1
    58    28    56    1
@<TRIPOS>SUBSTRUCTURE
     1 ZINC000195331548        1 TEMP              0 ****  ****    0 ROOT


##########                                Name:    ZINC001289445798
##########                DOCK_Rotatable_Bonds:                  10
##########                         Heavy_Atoms:                  25
##########                    Molecular_Weight:             352.434
##########                DOCK_Rotatable_Bonds:                  10
##########                       Formal_Charge:          0.00999932
##########                     HBond_Acceptors:                   8
##########                        HBond_Donors:                   2
##########                         Heavy_Atoms:                  25
##########                          Grid_Score:          -32.509300
##########                     Grid_vdw_energy:          -32.230476
##########                      Grid_es_energy:           -0.278825
##########           Internal_energy_repulsive:           13.152213

@<TRIPOS>MOLECULE
ZINC001289445798
 53 54 1 0 0
SMALL
USER_CHARGES


@<TRIPOS>ATOM
      1 C1         -4.2071    4.0819   53.6676 C.3     1  ZINC001289445798   -0.1500
      2 C2         -5.5671    3.5173   53.2527 C.3     1  ZINC001289445798    0.0600
      3 O3         -5.3742    2.3408   52.4647 O.3     1  ZINC001289445798   -0.3700
      4 C4         -6.5887    1.7345   52.0184 C.3     1  ZINC001289445798    0.1100
      5 H5         -7.4366    2.2250   52.4964 H       1  ZINC001289445798    0.0700
      6 C6         -6.5834    0.2499   52.3882 C.3     1  ZINC001289445798   -0.1400
      7 C7         -8.0024   -0.2384   52.5267 C.2     1  ZINC001289445798    0.5400
      8 O8         -8.5395   -0.8114   51.6024 O.2     1  ZINC001289445798   -0.5200
      9 N9         -8.6746   -0.0383   53.6775 N.am    1  ZINC001289445798   -0.6200
     10 C10       -10.0543   -0.4671   53.9497 C.3     1  ZINC001289445798    0.1000
     11 C11       -10.3874   -0.0479   55.3970 C.3     1  ZINC001289445798    0.1400
     12 H12       -10.9145    0.9060   55.4107 H       1  ZINC001289445798    0.1200
     13 N13       -11.1764   -1.0838   56.0681 N.am    1  ZINC001289445798   -0.7200
     14 C14       -12.4807   -1.2390   55.7658 C.2     1  ZINC001289445798    0.6000
     15 O15       -13.0029   -0.5182   54.9370 O.2     1  ZINC001289445798   -0.5100
     16 C16       -13.2730   -2.2808   56.4387 C.2     1  ZINC001289445798   -0.0500
     17 C17       -14.5937   -2.1892   56.8424 C.2     1  ZINC001289445798   -0.1400
     18 C18       -14.8889   -3.4236   57.4253 C.2     1  ZINC001289445798    0.0000
     19 N19       -13.8136   -4.1663   57.3588 N.2     1  ZINC001289445798   -0.2700
     20 N20       -12.8542   -3.5342   56.7845 N.pl3   1  ZINC001289445798   -0.3800
     21 C21        -8.9866    0.0898   56.0500 C.3     1  ZINC001289445798    0.0700
     22 H22        -8.6097   -0.8802   56.3743 H       1  ZINC001289445798    0.0900
     23 O23        -9.0178    1.0142   57.1393 O.3     1  ZINC001289445798   -0.3700
     24 C24        -8.0608    0.7377   58.1638 C.3     1  ZINC001289445798    0.0300
     25 C25        -8.1460    0.6411   54.8743 C.3     1  ZINC001289445798    0.0800
     26 C26        -6.7042    1.8814   50.4999 C.3     1  ZINC001289445798   -0.1100
     27 C27        -7.6747    3.0172   50.1696 C.3     1  ZINC001289445798   -0.1500
     28 C28        -5.3278    2.1997   49.9122 C.3     1  ZINC001289445798   -0.1500
     29 H29        -3.6304    4.3317   52.7770 H       1  ZINC001289445798    0.0600
     30 H30        -4.3542    4.9792   54.2687 H       1  ZINC001289445798    0.0700
     31 H31        -3.6676    3.3372   54.2527 H       1  ZINC001289445798    0.0600
     32 H32        -6.1439    3.2674   54.1432 H       1  ZINC001289445798    0.0500
     33 H33        -6.1066    4.2621   52.6676 H       1  ZINC001289445798    0.0500
     34 H34        -6.0787   -0.3175   51.6062 H       1  ZINC001289445798    0.1100
     35 H35        -6.0581    0.1127   53.3333 H       1  ZINC001289445798    0.1000
     36 H36       -10.7381    0.0216   53.2556 H       1  ZINC001289445798    0.0800
     37 H37       -10.1326   -1.5496   53.8499 H       1  ZINC001289445798    0.0800
     38 H38       -10.7604   -1.6580   56.7300 H       1  ZINC001289445798    0.4000
     39 H39       -15.2554   -1.3429   56.7305 H       1  ZINC001289445798    0.1700
     40 H40       -15.8363   -3.7135   57.8551 H       1  ZINC001289445798    0.1900
     41 H41       -11.9658   -3.8901   56.6267 H       1  ZINC001289445798    0.4400
     42 H42        -8.1485    1.4837   58.9538 H       1  ZINC001289445798    0.0900
     43 H43        -8.2476   -0.2532   58.5776 H       1  ZINC001289445798    0.0400
     44 H44        -7.0565    0.7720   57.7417 H       1  ZINC001289445798    0.0500
     45 H45        -7.0922    0.4016   55.0164 H       1  ZINC001289445798    0.0900
     46 H46        -8.2820    1.7188   54.7834 H       1  ZINC001289445798    0.0900
     47 H47        -7.0755    0.9502   50.0719 H       1  ZINC001289445798    0.0800
     48 H48        -7.3033    3.9484   50.5976 H       1  ZINC001289445798    0.0600
     49 H49        -7.7568    3.1219   49.0878 H       1  ZINC001289445798    0.0600
     50 H50        -8.6552    2.7905   50.5883 H       1  ZINC001289445798    0.0600
     51 H51        -4.6633    1.3488   50.0620 H       1  ZINC001289445798    0.0600
     52 H52        -5.4259    2.4007   48.8454 H       1  ZINC001289445798    0.0600
     53 H53        -4.9137    3.0762   50.4105 H       1  ZINC001289445798    0.0500
@<TRIPOS>BOND
     1     1     2    1
     2     1    29    1
     3     1    30    1
     4     1    31    1
     5     2     3    1
     6     2    32    1
     7     2    33    1
     8     3     4    1
     9     4     5    1
    10     4     6    1
    11     4    26    1
    12     6     7    1
    13     6    34    1
    14     6    35    1
    15     7     8    2
    16     7     9   am
    17     9    25    1
    18     9    10    1
    19    10    11    1
    20    10    36    1
    21    10    37    1
    22    11    12    1
    23    11    13    1
    24    11    21    1
    25    13    14   am
    26    13    38    1
    27    14    15    2
    28    14    16    1
    29    16    20    1
    30    16    17    2
    31    17    18    1
    32    17    39    1
    33    18    19    2
    34    18    40    1
    35    19    20    1
    36    20    41    1
    37    21    22    1
    38    21    23    1
    39    21    25    1
    40    23    24    1
    41    24    42    1
    42    24    43    1
    43    24    44    1
    44    25    45    1
    45    25    46    1
    46    26    27    1
    47    26    28    1
    48    26    47    1
    49    27    48    1
    50    27    49    1
    51    27    50    1
    52    28    51    1
    53    28    52    1
    54    28    53    1
@<TRIPOS>SUBSTRUCTURE
     1 ZINC001289445798        1 TEMP              0 ****  ****    0 ROOT


##########                                Name:    ZINC001193456967
##########                DOCK_Rotatable_Bonds:                   3
##########                         Heavy_Atoms:                  27
##########                    Molecular_Weight:             392.451
##########                DOCK_Rotatable_Bonds:                   3
##########                       Formal_Charge:           0.0300002
##########                     HBond_Acceptors:                   8
##########                        HBond_Donors:                   0
##########                         Heavy_Atoms:                  27
##########                          Grid_Score:          -32.501812
##########                     Grid_vdw_energy:          -32.342060
##########                      Grid_es_energy:           -0.159753
##########           Internal_energy_repulsive:           39.321404

@<TRIPOS>MOLECULE
ZINC001193456967
 48 50 1 0 0
SMALL
USER_CHARGES


@<TRIPOS>ATOM
      1 C1         -0.3333    2.4690   50.5775 C.3     1  ZINC001193456967   -0.1400
      2 C2         -1.8339    2.6058   50.5565 C.ar    1  ZINC001193456967    0.0300
      3 C3         -2.4557    3.5246   51.3810 C.ar    1  ZINC001193456967   -0.1400
      4 C4         -3.8324    3.6501   51.3617 C.ar    1  ZINC001193456967    0.0300
      5 C5         -4.5868    2.8572   50.5178 C.ar    1  ZINC001193456967   -0.6900
      6 S6         -6.3414    3.0167   50.4936 S.o2    1  ZINC001193456967    2.7100
      7 O7         -6.6426    4.2377   51.1550 O.2     1  ZINC001193456967   -0.9300
      8 O8         -6.7519    2.7315   49.1633 O.2     1  ZINC001193456967   -0.9400
      9 N9         -6.9568    1.8067   51.4422 N.am    1  ZINC001193456967   -1.0000
     10 C10        -6.7661    0.3614   51.2226 C.3     1  ZINC001193456967    0.1100
     11 C11        -7.9710   -0.3093   51.9282 C.3     1  ZINC001193456967   -0.1200
     12 C12        -8.1421    0.5937   53.1782 C.3     1  ZINC001193456967   -0.0500
     13 H13        -7.4530    0.2939   53.9678 H       1  ZINC001193456967    0.1000
     14 C14        -9.5652    0.5557   53.6727 C.ar    1  ZINC001193456967   -0.0800
     15 C15       -10.6029    0.3743   52.7773 C.ar    1  ZINC001193456967   -0.0800
     16 C16       -11.9082    0.3394   53.2296 C.ar    1  ZINC001193456967   -0.1500
     17 C17       -12.1767    0.4857   54.5800 C.ar    1  ZINC001193456967    0.1000
     18 F18       -13.4524    0.4512   55.0233 F       1  ZINC001193456967   -0.1400
     19 C19       -11.1366    0.6669   55.4758 C.ar    1  ZINC001193456967   -0.1500
     20 C20        -9.8317    0.6966   55.0218 C.ar    1  ZINC001193456967   -0.0800
     21 C21        -7.7784    1.9962   52.6466 C.3     1  ZINC001193456967    0.1900
     22 C22        -6.9896    2.7664   53.7075 C.3     1  ZINC001193456967   -0.1800
     23 C23        -9.0526    2.7616   52.2837 C.3     1  ZINC001193456967   -0.1800
     24 C24        -3.9648    1.9390   49.6921 C.ar    1  ZINC001193456967    0.0400
     25 C25        -2.5882    1.8162   49.7086 C.ar    1  ZINC001193456967   -0.0600
     26 N26        -1.9222    0.8333   48.8248 N.pl3   1  ZINC001193456967    0.0200
     27 O27        -0.8560    1.1073   48.3035 O.2     1  ZINC001193456967   -0.1400
     28 O28        -2.4404   -0.2495   48.6187 O.2     1  ZINC001193456967   -0.1500
     29 H29         0.0982    3.0768   49.7822 H       1  ZINC001193456967    0.1100
     30 H30         0.0489    2.8067   51.5408 H       1  ZINC001193456967    0.0900
     31 H31        -0.0615    1.4245   50.4248 H       1  ZINC001193456967    0.0800
     32 H32        -1.8661    4.1443   52.0404 H       1  ZINC001193456967    0.1600
     33 H33        -4.3183    4.3676   52.0063 H       1  ZINC001193456967    0.1600
     34 H34        -6.7767    0.1351   50.1564 H       1  ZINC001193456967    0.0900
     35 H35        -5.8303    0.0296   51.6724 H       1  ZINC001193456967    0.0700
     36 H36        -8.8601   -0.2770   51.2983 H       1  ZINC001193456967    0.0900
     37 H37        -7.7347   -1.3338   52.2156 H       1  ZINC001193456967    0.0900
     38 H38       -10.3932    0.2603   51.7240 H       1  ZINC001193456967    0.1400
     39 H39       -12.7187    0.1983   52.5298 H       1  ZINC001193456967    0.1400
     40 H40       -11.3449    0.7814   56.5293 H       1  ZINC001193456967    0.1400
     41 H41        -9.0202    0.8377   55.7204 H       1  ZINC001193456967    0.1300
     42 H42        -6.0748    2.2236   53.9452 H       1  ZINC001193456967    0.0700
     43 H43        -6.7364    3.7552   53.3252 H       1  ZINC001193456967    0.0600
     44 H44        -7.5957    2.8690   54.6076 H       1  ZINC001193456967    0.0800
     45 H45        -9.7271    2.7710   53.1399 H       1  ZINC001193456967    0.0800
     46 H46        -8.7963    3.7855   52.0118 H       1  ZINC001193456967    0.0900
     47 H47        -9.5420    2.2735   51.4409 H       1  ZINC001193456967    0.0700
     48 H48        -4.5544    1.3196   49.0325 H       1  ZINC001193456967    0.1600
@<TRIPOS>BOND
     1     1     2    1
     2     1    29    1
     3     1    30    1
     4     1    31    1
     5     2    25   ar
     6     2     3   ar
     7     3     4   ar
     8     3    32    1
     9     4     5   ar
    10     4    33    1
    11     5     6    1
    12     5    24   ar
    13     6     7    2
    14     6     8    2
    15     6     9   am
    16     9    21    1
    17     9    10    1
    18    10    11    1
    19    10    34    1
    20    10    35    1
    21    11    12    1
    22    11    36    1
    23    11    37    1
    24    12    13    1
    25    12    14    1
    26    12    21    1
    27    14    20   ar
    28    14    15   ar
    29    15    16   ar
    30    15    38    1
    31    16    17   ar
    32    16    39    1
    33    17    18    1
    34    17    19   ar
    35    19    20   ar
    36    19    40    1
    37    20    41    1
    38    21    22    1
    39    21    23    1
    40    22    42    1
    41    22    43    1
    42    22    44    1
    43    23    45    1
    44    23    46    1
    45    23    47    1
    46    24    25   ar
    47    24    48    1
    48    25    26    1
    49    26    27    2
    50    26    28    2
@<TRIPOS>SUBSTRUCTURE
     1 ZINC001193456967        1 TEMP              0 ****  ****    0 ROOT


##########                                Name:    ZINC000562561773
##########                DOCK_Rotatable_Bonds:                   6
##########                         Heavy_Atoms:                  26
##########                    Molecular_Weight:             371.466
##########                DOCK_Rotatable_Bonds:                   6
##########                       Formal_Charge:           0.0199999
##########                     HBond_Acceptors:                   9
##########                        HBond_Donors:                   0
##########                         Heavy_Atoms:                  26
##########                          Grid_Score:          -32.490765
##########                     Grid_vdw_energy:          -32.285660
##########                      Grid_es_energy:           -0.205107
##########           Internal_energy_repulsive:           25.242231

@<TRIPOS>MOLECULE
ZINC000562561773
 47 50 1 0 0
SMALL
USER_CHARGES


@<TRIPOS>ATOM
      1 C1         -8.4132    0.8900   59.6068 C.3     1  ZINC000562561773   -0.1100
      2 C2         -8.3796    0.7180   58.1100 C.ar    1  ZINC000562561773   -0.0400
      3 C3         -7.4773    1.4407   57.3534 C.ar    1  ZINC000562561773   -0.1200
      4 C4         -7.4416    1.2877   55.9814 C.ar    1  ZINC000562561773   -0.0700
      5 C5         -8.3169    0.4025   55.3555 C.ar    1  ZINC000562561773   -0.0300
      6 C6         -8.2792    0.2368   53.8809 C.2     1  ZINC000562561773    0.2200
      7 N7         -9.1422   -0.4210   53.1515 N.2     1  ZINC000562561773   -0.3700
      8 O8         -8.8268   -0.3661   51.9816 O.3     1  ZINC000562561773    0.0900
      9 C9         -7.7056    0.3483   51.8428 C.2     1  ZINC000562561773    0.1900
     10 C10        -6.9903    0.6496   50.5512 C.3     1  ZINC000562561773   -0.0100
     11 C11        -7.4785    1.9901   49.9985 C.3     1  ZINC000562561773   -0.1200
     12 S12        -6.8689    3.3333   51.0475 S.3     1  ZINC000562561773    0.0600
     13 C13        -5.1320    3.0980   50.8673 C.2     1  ZINC000562561773    0.2100
     14 N14        -4.5395    2.1720   50.1449 N.2     1  ZINC000562561773   -0.3300
     15 N15        -3.2630    2.2812   50.2330 N.2     1  ZINC000562561773   -0.0300
     16 N16        -2.9496    3.2660   51.0035 N.2     1  ZINC000562561773   -0.0700
     17 N17        -4.1557    3.8398   51.4419 N.pl3   1  ZINC000562561773   -0.3600
     18 C18        -4.3211    4.9884   52.3359 C.3     1  ZINC000562561773    0.0800
     19 N19        -7.3491    0.7429   53.0398 N.2     1  ZINC000562561773   -0.4600
     20 C20        -9.2267   -0.3264   56.1166 C.ar    1  ZINC000562561773   -0.1100
     21 C21        -9.2527   -0.1715   57.4947 C.ar    1  ZINC000562561773    0.0800
     22 N22       -10.1634   -0.9010   58.2628 N.3     1  ZINC000562561773   -0.4800
     23 C23       -11.5595   -0.6266   57.8362 C.3     1  ZINC000562561773    0.0400
     24 C24       -12.3431   -1.8470   58.3813 C.3     1  ZINC000562561773   -0.1200
     25 C25       -11.3531   -3.0156   58.1710 C.3     1  ZINC000562561773   -0.1300
     26 C26        -9.9647   -2.3553   58.0812 C.3     1  ZINC000562561773    0.0400
     27 H27        -7.7276    0.1800   60.0695 H       1  ZINC000562561773    0.0700
     28 H28        -8.1116    1.9057   59.8627 H       1  ZINC000562561773    0.0600
     29 H29        -9.4244    0.7085   59.9708 H       1  ZINC000562561773    0.0800
     30 H30        -6.7981    2.1276   57.8364 H       1  ZINC000562561773    0.1400
     31 H31        -6.7350    1.8547   55.3934 H       1  ZINC000562561773    0.1400
     32 H32        -5.9169    0.7010   50.7336 H       1  ZINC000562561773    0.1200
     33 H33        -7.1984   -0.1390   49.8281 H       1  ZINC000562561773    0.1300
     34 H34        -7.1037    2.1230   48.9837 H       1  ZINC000562561773    0.1100
     35 H35        -8.5684    2.0036   49.9879 H       1  ZINC000562561773    0.1100
     36 H36        -4.3557    5.9051   51.7472 H       1  ZINC000562561773    0.1000
     37 H37        -5.2497    4.8816   52.8968 H       1  ZINC000562561773    0.1000
     38 H38        -3.4811    5.0332   53.0291 H       1  ZINC000562561773    0.1100
     39 H39        -9.9073   -1.0134   55.6359 H       1  ZINC000562561773    0.1300
     40 H40       -11.9246    0.2970   58.2855 H       1  ZINC000562561773    0.0900
     41 H41       -11.6275   -0.5801   56.7493 H       1  ZINC000562561773    0.0500
     42 H42       -12.5690   -1.7187   59.4399 H       1  ZINC000562561773    0.0800
     43 H43       -13.2560   -2.0068   57.8076 H       1  ZINC000562561773    0.0700
     44 H44       -11.3918   -3.7013   59.0175 H       1  ZINC000562561773    0.0800
     45 H45       -11.5817   -3.5431   57.2449 H       1  ZINC000562561773    0.0700
     46 H46        -9.5232   -2.5505   57.1040 H       1  ZINC000562561773    0.0500
     47 H47        -9.3176   -2.7427   58.8681 H       1  ZINC000562561773    0.0800
@<TRIPOS>BOND
     1     1     2    1
     2     1    27    1
     3     1    28    1
     4     1    29    1
     5     2    21   ar
     6     2     3   ar
     7     3     4   ar
     8     3    30    1
     9     4     5   ar
    10     4    31    1
    11     5     6    1
    12     5    20   ar
    13     6    19    1
    14     6     7    2
    15     7     8    1
    16     8     9    1
    17     9    10    1
    18     9    19    2
    19    10    11    1
    20    10    32    1
    21    10    33    1
    22    11    12    1
    23    11    34    1
    24    11    35    1
    25    12    13    1
    26    13    17    1
    27    13    14    2
    28    14    15    1
    29    15    16    2
    30    16    17    1
    31    17    18    1
    32    18    36    1
    33    18    37    1
    34    18    38    1
    35    20    21   ar
    36    20    39    1
    37    21    22    1
    38    22    26    1
    39    22    23    1
    40    23    24    1
    41    23    40    1
    42    23    41    1
    43    24    25    1
    44    24    42    1
    45    24    43    1
    46    25    26    1
    47    25    44    1
    48    25    45    1
    49    26    46    1
    50    26    47    1
@<TRIPOS>SUBSTRUCTURE
     1 ZINC000562561773        1 TEMP              0 ****  ****    0 ROOT


##########                                Name:    ZINC000564088286
##########                DOCK_Rotatable_Bonds:                   6
##########                         Heavy_Atoms:                  25
##########                    Molecular_Weight:             398.934
##########                DOCK_Rotatable_Bonds:                   6
##########                       Formal_Charge:               -0.05
##########                     HBond_Acceptors:                   8
##########                        HBond_Donors:                   1
##########                         Heavy_Atoms:                  25
##########                          Grid_Score:          -32.485764
##########                     Grid_vdw_energy:          -31.431892
##########                      Grid_es_energy:           -1.053870
##########           Internal_energy_repulsive:           12.606865

@<TRIPOS>MOLECULE
ZINC000564088286
 44 46 1 0 0
SMALL
USER_CHARGES


@<TRIPOS>ATOM
      1 C1        -14.2400   -0.4423   54.9618 C.3     1  ZINC000564088286   -0.1600
      2 C2        -12.7449   -0.2574   54.6946 C.3     1  ZINC000564088286    0.1100
      3 N3        -11.9749   -0.8989   55.7632 N.am    1  ZINC000564088286   -1.1200
      4 S4        -10.5933   -1.7365   55.3999 S.o2    1  ZINC000564088286    2.7000
      5 O5        -10.0066   -2.1006   56.6419 O.2     1  ZINC000564088286   -0.9600
      6 O6        -10.9487   -2.6828   54.4012 O.2     1  ZINC000564088286   -0.9600
      7 C7         -9.4810   -0.6025   54.6376 C.ar    1  ZINC000564088286   -0.6800
      8 C8         -9.5845   -0.3363   53.2850 C.ar    1  ZINC000564088286   -0.0200
      9 C9         -8.7118    0.5534   52.6869 C.ar    1  ZINC000564088286   -0.1300
     10 C10        -7.7359    1.1774   53.4415 C.ar    1  ZINC000564088286   -0.0100
     11 C11        -6.7842    2.1468   52.7893 C.3     1  ZINC000564088286   -0.1100
     12 C12        -5.9923    1.4335   51.7239 C.2     1  ZINC000564088286    0.5200
     13 O13        -6.1363    0.2408   51.5577 O.2     1  ZINC000564088286   -0.5200
     14 N14        -5.1241    2.1209   50.9557 N.am    1  ZINC000564088286   -0.6200
     15 C15        -4.9343    3.5675   51.1405 C.3     1  ZINC000564088286    0.1200
     16 C16        -3.4996    3.8146   51.6169 C.3     1  ZINC000564088286   -0.0700
     17 C17        -2.5492    2.9920   50.7729 C.2     1  ZINC000564088286   -0.1600
     18 C18        -2.9021    1.9351   50.0175 C.2     1  ZINC000564088286   -0.1200
     19 C19        -1.8366    1.3447   49.3444 C.2     1  ZINC000564088286   -0.1100
     20 C20        -0.6483    1.9100   49.5402 C.2     1  ZINC000564088286   -0.1500
     21 Cl21        0.8421    1.3808   48.8245 Cl      1  ZINC000564088286   -0.0100
     22 S22        -0.8186    3.2747   50.6338 S.3     1  ZINC000564088286    0.1600
     23 C23        -4.3374    1.4434   49.9154 C.3     1  ZINC000564088286    0.1700
     24 C24        -7.6333    0.9121   54.7942 C.ar    1  ZINC000564088286   -0.1300
     25 C25        -8.5084    0.0254   55.3931 C.ar    1  ZINC000564088286   -0.0200
     26 H26       -14.4751   -1.5063   54.9905 H       1  ZINC000564088286    0.0600
     27 H27       -14.4972    0.0126   55.9182 H       1  ZINC000564088286    0.0600
     28 H28       -14.8129    0.0350   54.1667 H       1  ZINC000564088286    0.0700
     29 H29       -12.4877   -0.7123   53.7380 H       1  ZINC000564088286    0.0800
     30 H30       -12.5098    0.8066   54.6658 H       1  ZINC000564088286    0.0700
     31 H31       -12.2743   -0.8329   56.6835 H       1  ZINC000564088286    0.4200
     32 H32       -10.3470   -0.8237   52.6956 H       1  ZINC000564088286    0.1400
     33 H33        -8.7923    0.7608   51.6301 H       1  ZINC000564088286    0.1300
     34 H34        -7.3491    2.9621   52.3374 H       1  ZINC000564088286    0.1100
     35 H35        -6.1037    2.5486   53.5400 H       1  ZINC000564088286    0.1100
     36 H36        -5.0994    4.0822   50.1939 H       1  ZINC000564088286    0.0800
     37 H37        -5.6368    3.9363   51.8879 H       1  ZINC000564088286    0.1100
     38 H38        -3.2578    4.8723   51.5122 H       1  ZINC000564088286    0.0900
     39 H39        -3.4068    3.5201   52.6623 H       1  ZINC000564088286    0.0900
     40 H40        -1.9658    0.4838   48.7052 H       1  ZINC000564088286    0.1500
     41 H41        -4.3699    0.3647   50.0684 H       1  ZINC000564088286    0.1000
     42 H42        -4.7433    1.6903   48.9343 H       1  ZINC000564088286    0.0900
     43 H43        -6.8710    1.3998   55.3837 H       1  ZINC000564088286    0.1300
     44 H44        -8.4282   -0.1819   56.4500 H       1  ZINC000564088286    0.1400
@<TRIPOS>BOND
     1     1     2    1
     2     1    26    1
     3     1    27    1
     4     1    28    1
     5     2     3    1
     6     2    29    1
     7     2    30    1
     8     3     4   am
     9     3    31    1
    10     4     5    2
    11     4     6    2
    12     4     7    1
    13     7    25   ar
    14     7     8   ar
    15     8     9   ar
    16     8    32    1
    17     9    10   ar
    18     9    33    1
    19    10    11    1
    20    10    24   ar
    21    11    12    1
    22    11    34    1
    23    11    35    1
    24    12    13    2
    25    12    14   am
    26    14    23    1
    27    14    15    1
    28    15    16    1
    29    15    36    1
    30    15    37    1
    31    16    17    1
    32    16    38    1
    33    16    39    1
    34    17    22    1
    35    17    18    2
    36    18    19    1
    37    18    23    1
    38    19    20    2
    39    19    40    1
    40    20    21    1
    41    20    22    1
    42    23    41    1
    43    23    42    1
    44    24    25   ar
    45    24    43    1
    46    25    44    1
@<TRIPOS>SUBSTRUCTURE
     1 ZINC000564088286        1 TEMP              0 ****  ****    0 ROOT


##########                                Name:    ZINC000279331220
##########                DOCK_Rotatable_Bonds:                   9
##########                         Heavy_Atoms:                  24
##########                    Molecular_Weight:             328.411
##########                DOCK_Rotatable_Bonds:                   9
##########                       Formal_Charge:          -0.0100001
##########                     HBond_Acceptors:                   5
##########                        HBond_Donors:                   0
##########                         Heavy_Atoms:                  24
##########                          Grid_Score:          -32.480350
##########                     Grid_vdw_energy:          -32.006359
##########                      Grid_es_energy:           -0.473993
##########           Internal_energy_repulsive:           21.566650

@<TRIPOS>MOLECULE
ZINC000279331220
 48 49 1 0 0
SMALL
USER_CHARGES


@<TRIPOS>ATOM
      1 C1        -10.1458   -3.2697   59.2907 C.3     1  ZINC000279331220   -0.1500
      2 C2         -9.4615   -1.9168   59.4957 C.3     1  ZINC000279331220    0.0500
      3 O3         -9.0153   -1.4128   58.2352 O.3     1  ZINC000279331220   -0.3000
      4 C4         -8.4201   -0.1901   58.2347 C.ar    1  ZINC000279331220    0.1000
      5 C5         -8.0797    0.4167   59.4327 C.ar    1  ZINC000279331220   -0.1700
      6 C6         -7.4741    1.6598   59.4305 C.ar    1  ZINC000279331220   -0.1200
      7 C7         -7.2074    2.2999   58.2349 C.ar    1  ZINC000279331220   -0.1200
      8 C8         -7.5450    1.6999   57.0355 C.ar    1  ZINC000279331220   -0.1700
      9 C9         -8.1462    0.4520   57.0304 C.ar    1  ZINC000279331220    0.1000
     10 O10        -8.4788   -0.1393   55.8519 O.3     1  ZINC000279331220   -0.3000
     11 C11        -8.2018    0.5940   54.6571 C.3     1  ZINC000279331220    0.0600
     12 C12        -8.6495   -0.2216   53.4426 C.3     1  ZINC000279331220   -0.1100
     13 C13        -8.5117    0.6287   52.1782 C.3     1  ZINC000279331220   -0.1300
     14 C14        -7.0523    0.8759   51.8956 C.2     1  ZINC000279331220    0.5200
     15 O15        -6.2122    0.1247   52.3435 O.2     1  ZINC000279331220   -0.5200
     16 N16        -6.6806    1.9318   51.1451 N.am    1  ZINC000279331220   -0.5700
     17 C17        -7.6953    2.8403   50.6054 C.3     1  ZINC000279331220    0.0800
     18 C18        -5.3306    2.1595   50.8822 C.ar    1  ZINC000279331220    0.3400
     19 N19        -4.7567    1.5729   49.8440 N.ar    1  ZINC000279331220   -0.4800
     20 C20        -3.4822    1.7614   49.5599 C.ar    1  ZINC000279331220    0.1100
     21 C21        -2.6965    2.5840   50.3424 C.ar    1  ZINC000279331220   -0.1600
     22 C22        -3.2605    3.2183   51.4411 C.ar    1  ZINC000279331220   -0.0700
     23 C23        -4.6010    3.0054   51.7101 C.ar    1  ZINC000279331220   -0.1200
     24 C24        -5.2582    3.6721   52.8910 C.3     1  ZINC000279331220   -0.1100
     25 H25       -10.4861   -3.6541   60.2522 H       1  ZINC000279331220    0.0800
     26 H26       -11.0003   -3.1476   58.6252 H       1  ZINC000279331220    0.0700
     27 H27        -9.4384   -3.9715   58.8488 H       1  ZINC000279331220    0.0700
     28 H28       -10.1689   -1.2151   59.9377 H       1  ZINC000279331220    0.0600
     29 H29        -8.6069   -2.0389   60.1613 H       1  ZINC000279331220    0.0600
     30 H30        -8.2877   -0.0811   60.3683 H       1  ZINC000279331220    0.1300
     31 H31        -7.2092    2.1318   60.3650 H       1  ZINC000279331220    0.1300
     32 H32        -6.7345    3.2709   58.2374 H       1  ZINC000279331220    0.1300
     33 H33        -7.3360    2.2025   56.1028 H       1  ZINC000279331220    0.1300
     34 H34        -8.7420    1.5405   54.6783 H       1  ZINC000279331220    0.0600
     35 H35        -7.1313    0.7880   54.5899 H       1  ZINC000279331220    0.0600
     36 H36        -8.0258   -1.1110   53.3522 H       1  ZINC000279331220    0.0800
     37 H37        -9.6905   -0.5193   53.5686 H       1  ZINC000279331220    0.0800
     38 H38        -8.9610    0.1026   51.3358 H       1  ZINC000279331220    0.1000
     39 H39        -9.0201    1.5818   52.3242 H       1  ZINC000279331220    0.1000
     40 H40        -7.9474    3.5900   51.3553 H       1  ZINC000279331220    0.0700
     41 H41        -7.3048    3.3337   49.7154 H       1  ZINC000279331220    0.0800
     42 H42        -8.5887    2.2731   50.3440 H       1  ZINC000279331220    0.0800
     43 H43        -3.0477    1.2655   48.7045 H       1  ZINC000279331220    0.1600
     44 H44        -1.6539    2.7323   50.1026 H       1  ZINC000279331220    0.1400
     45 H45        -2.6675    3.8668   52.0690 H       1  ZINC000279331220    0.1400
     46 H46        -5.7410    4.5937   52.5657 H       1  ZINC000279331220    0.0800
     47 H47        -6.0047    3.0020   53.3175 H       1  ZINC000279331220    0.0700
     48 H48        -4.5046    3.9029   53.6438 H       1  ZINC000279331220    0.0700
@<TRIPOS>BOND
     1     1     2    1
     2     1    25    1
     3     1    26    1
     4     1    27    1
     5     2     3    1
     6     2    28    1
     7     2    29    1
     8     3     4    1
     9     4     9   ar
    10     4     5   ar
    11     5     6   ar
    12     5    30    1
    13     6     7   ar
    14     6    31    1
    15     7     8   ar
    16     7    32    1
    17     8     9   ar
    18     8    33    1
    19     9    10    1
    20    10    11    1
    21    11    12    1
    22    11    34    1
    23    11    35    1
    24    12    13    1
    25    12    36    1
    26    12    37    1
    27    13    14    1
    28    13    38    1
    29    13    39    1
    30    14    15    2
    31    14    16   am
    32    16    17    1
    33    16    18    1
    34    17    40    1
    35    17    41    1
    36    17    42    1
    37    18    23   ar
    38    18    19   ar
    39    19    20   ar
    40    20    21   ar
    41    20    43    1
    42    21    22   ar
    43    21    44    1
    44    22    23   ar
    45    22    45    1
    46    23    24    1
    47    24    46    1
    48    24    47    1
    49    24    48    1
@<TRIPOS>SUBSTRUCTURE
     1 ZINC000279331220        1 TEMP              0 ****  ****    0 ROOT


##########                                Name:    ZINC001271977984
##########                DOCK_Rotatable_Bonds:                   7
##########                         Heavy_Atoms:                  24
##########                    Molecular_Weight:             328.371
##########                DOCK_Rotatable_Bonds:                   7
##########                       Formal_Charge:           0.0200001
##########                     HBond_Acceptors:                   7
##########                        HBond_Donors:                   0
##########                         Heavy_Atoms:                  24
##########                          Grid_Score:          -32.456760
##########                     Grid_vdw_energy:          -31.217068
##########                      Grid_es_energy:           -1.239693
##########           Internal_energy_repulsive:           18.739658

@<TRIPOS>MOLECULE
ZINC001271977984
 44 46 1 0 0
SMALL
USER_CHARGES


@<TRIPOS>ATOM
      1 C1        -11.4543    0.7171   53.2536 C.3     1  ZINC001271977984   -0.1800
      2 C2        -10.3783   -0.3647   53.1396 C.3     1  ZINC001271977984    0.1700
      3 H3        -10.7698   -1.2080   52.5708 H       1  ZINC001271977984    0.1100
      4 C4         -9.1714    0.1994   52.4353 C.2     1  ZINC001271977984    0.2700
      5 N5         -8.0899   -0.4679   52.1657 N.2     1  ZINC001271977984   -0.4700
      6 C6         -7.2147    0.3550   51.5268 C.ar    1  ZINC001271977984    0.0200
      7 C7         -5.9281    0.1856   51.0137 C.ar    1  ZINC001271977984   -0.0600
      8 C8         -5.2899    1.2443   50.4068 C.ar    1  ZINC001271977984   -0.1200
      9 C9         -5.9179    2.4764   50.3026 C.ar    1  ZINC001271977984   -0.0900
     10 C10        -7.1894    2.6584   50.8056 C.ar    1  ZINC001271977984   -0.0900
     11 C11        -7.8467    1.6035   51.4193 C.ar    1  ZINC001271977984    0.0100
     12 O12        -9.0625    1.4616   51.9917 O.3     1  ZINC001271977984   -0.2100
     13 N13        -9.9942   -0.8167   54.4836 N.3     1  ZINC001271977984   -0.5300
     14 C14        -9.2875    0.2441   55.2138 C.3     1  ZINC001271977984    0.0000
     15 C15       -11.1656   -1.2838   55.2368 C.3     1  ZINC001271977984    0.0400
     16 C16       -10.7470   -2.4099   56.1841 C.3     1  ZINC001271977984    0.1200
     17 N17       -11.7572   -2.5659   57.2338 N.am    1  ZINC001271977984   -0.6000
     18 C18       -13.1486   -2.8510   56.8746 C.3     1  ZINC001271977984    0.0800
     19 C19       -11.4065   -2.4472   58.5296 C.2     1  ZINC001271977984    0.6000
     20 O20       -12.2450   -2.5767   59.4007 O.2     1  ZINC001271977984   -0.5300
     21 C21       -10.0064   -2.1603   58.8910 C.2     1  ZINC001271977984   -0.0800
     22 C22        -9.4260   -0.9316   58.9651 C.2     1  ZINC001271977984    0.0200
     23 O23        -8.1474   -1.1238   59.3268 O.3     1  ZINC001271977984   -0.2000
     24 C24        -7.9463   -2.4413   59.4718 C.2     1  ZINC001271977984    0.1800
     25 N25        -9.0527   -3.0738   59.2188 N.2     1  ZINC001271977984   -0.4600
     26 H26       -12.3272    0.3091   53.7630 H       1  ZINC001271977984    0.0800
     27 H27       -11.0627    1.5604   53.8224 H       1  ZINC001271977984    0.0800
     28 H28       -11.7393    1.0525   52.2564 H       1  ZINC001271977984    0.0700
     29 H29        -5.4347   -0.7719   51.0926 H       1  ZINC001271977984    0.1400
     30 H30        -4.2940    1.1143   50.0096 H       1  ZINC001271977984    0.1400
     31 H31        -5.4075    3.2995   49.8245 H       1  ZINC001271977984    0.1400
     32 H32        -7.6721    3.6209   50.7209 H       1  ZINC001271977984    0.1400
     33 H33        -9.9374    1.1140   55.3101 H       1  ZINC001271977984    0.0300
     34 H34        -9.0147   -0.1171   56.2053 H       1  ZINC001271977984    0.0700
     35 H35        -8.3861    0.5227   54.6678 H       1  ZINC001271977984    0.1100
     36 H36       -11.5790   -0.4573   55.8150 H       1  ZINC001271977984    0.0500
     37 H37       -11.9199   -1.6545   54.5426 H       1  ZINC001271977984    0.0800
     38 H38       -10.6577   -3.3410   55.6246 H       1  ZINC001271977984    0.0900
     39 H39        -9.7867   -2.1649   56.6378 H       1  ZINC001271977984    0.0900
     40 H40       -13.3214   -3.9264   56.9154 H       1  ZINC001271977984    0.0600
     41 H41       -13.8150   -2.3490   57.5760 H       1  ZINC001271977984    0.0900
     42 H42       -13.3447   -2.4895   55.8651 H       1  ZINC001271977984    0.0700
     43 H43        -9.9029    0.0174   58.7699 H       1  ZINC001271977984    0.2300
     44 H44        -7.0129   -2.9036   59.7572 H       1  ZINC001271977984    0.2600
@<TRIPOS>BOND
     1     1     2    1
     2     1    26    1
     3     1    27    1
     4     1    28    1
     5     2     3    1
     6     2     4    1
     7     2    13    1
     8     4    12    1
     9     4     5    2
    10     5     6    1
    11     6    11   ar
    12     6     7   ar
    13     7     8   ar
    14     7    29    1
    15     8     9   ar
    16     8    30    1
    17     9    10   ar
    18     9    31    1
    19    10    11   ar
    20    10    32    1
    21    11    12    1
    22    13    14    1
    23    13    15    1
    24    14    33    1
    25    14    34    1
    26    14    35    1
    27    15    16    1
    28    15    36    1
    29    15    37    1
    30    16    17    1
    31    16    38    1
    32    16    39    1
    33    17    18    1
    34    17    19   am
    35    18    40    1
    36    18    41    1
    37    18    42    1
    38    19    20    2
    39    19    21    1
    40    21    25    1
    41    21    22    2
    42    22    23    1
    43    22    43    1
    44    23    24    1
    45    24    25    2
    46    24    44    1
@<TRIPOS>SUBSTRUCTURE
     1 ZINC001271977984        1 TEMP              0 ****  ****    0 ROOT


##########                                Name:    ZINC000266467123
##########                DOCK_Rotatable_Bonds:                   9
##########                         Heavy_Atoms:                  25
##########                    Molecular_Weight:             337.421
##########                DOCK_Rotatable_Bonds:                   9
##########                       Formal_Charge:                0.02
##########                     HBond_Acceptors:                   5
##########                        HBond_Donors:                   3
##########                         Heavy_Atoms:                  25
##########                          Grid_Score:          -32.456310
##########                     Grid_vdw_energy:          -31.648684
##########                      Grid_es_energy:           -0.807625
##########           Internal_energy_repulsive:            8.248557

@<TRIPOS>MOLECULE
ZINC000266467123
 48 50 1 0 0
SMALL
USER_CHARGES


@<TRIPOS>ATOM
      1 C1        -11.9175   -0.0030   53.8238 C.3     1  <0>        -0.1600
      2 C2        -10.6505   -0.8604   53.8442 C.3     1  <0>         0.1500
      3 H3        -10.9179   -1.9071   53.6997 H       1  <0>         0.1200
      4 N4         -9.9750   -0.7026   55.1345 N.am    1  <0>        -0.7300
      5 C5        -10.2506   -1.5480   56.1475 C.2     1  <0>         0.7100
      6 O6        -11.0590   -2.4424   55.9898 O.2     1  <0>        -0.5900
      7 N7         -9.6303   -1.4018   57.3349 N.am    1  <0>        -0.7100
      8 C8         -9.9286   -2.3217   58.4353 C.3     1  <0>         0.1100
      9 H9        -10.0037   -3.3740   58.1613 H       1  <0>         0.1400
     10 C10       -10.8453   -1.8152   59.5508 C.3     1  <0>        -0.1900
     11 C11        -9.3469   -1.9899   59.8110 C.3     1  <0>        -0.1500
     12 H12        -9.0395   -2.8237   60.4421 H       1  <0>         0.1200
     13 C13        -8.4986   -0.7224   59.9328 C.3     1  <0>        -0.0500
     14 C14        -8.8533   -0.0011   61.2077 C.ar    1  <0>        -0.0800
     15 C15        -8.1847   -0.3003   62.3800 C.ar    1  <0>        -0.1100
     16 C16        -8.5100    0.3613   63.5493 C.ar    1  <0>        -0.1200
     17 C17        -9.5036    1.3223   63.5463 C.ar    1  <0>        -0.1200
     18 C18       -10.1716    1.6221   62.3737 C.ar    1  <0>        -0.1200
     19 C19        -9.8434    0.9636   61.2034 C.ar    1  <0>        -0.1200
     20 C20        -9.7280   -0.4200   52.7370 C.2     1  <0>         0.5100
     21 O21        -9.8123   -0.9284   51.6391 O.2     1  <0>        -0.5100
     22 N22        -8.8094    0.5390   52.9668 N.am    1  <0>        -0.6700
     23 C23        -7.9528    0.9480   51.9387 C.ar    1  <0>         0.1400
     24 C24        -6.6856    0.3911   51.8259 C.ar    1  <0>        -0.1400
     25 C25        -5.8425    0.7970   50.8099 C.ar    1  <0>        -0.1000
     26 C26        -6.2588    1.7570   49.9061 C.ar    1  <0>        -0.1300
     27 C27        -7.5198    2.3139   50.0159 C.ar    1  <0>        -0.1000
     28 C28        -8.3701    1.9075   51.0256 C.ar    1  <0>        -0.1200
     29 H29       -12.4203   -0.1203   52.8638 H       1  <0>         0.0700
     30 H30       -12.5849   -0.3215   54.6247 H       1  <0>         0.0800
     31 H31       -11.6502    1.0438   53.9684 H       1  <0>         0.0700
     32 H32        -9.3291    0.0102   55.2599 H       1  <0>         0.4100
     33 H33        -8.9863   -0.6875   57.4610 H       1  <0>         0.4000
     34 H34       -11.2263   -0.7975   59.4659 H       1  <0>         0.1000
     35 H35       -11.5230   -2.5343   60.0108 H       1  <0>         0.1000
     36 H36        -7.4427   -0.9922   59.9498 H       1  <0>         0.0800
     37 H37        -8.6936   -0.0714   59.0807 H       1  <0>         0.0700
     38 H38        -7.4084   -1.0511   62.3823 H       1  <0>         0.1200
     39 H39        -7.9881    0.1270   64.4654 H       1  <0>         0.1200
     40 H40        -9.7583    1.8387   64.4600 H       1  <0>         0.1200
     41 H41       -10.9482    2.3727   62.3714 H       1  <0>         0.1200
     42 H42       -10.3652    1.1978   60.2874 H       1  <0>         0.1200
     43 H43        -8.7420    0.9457   53.8447 H       1  <0>         0.4100
     44 H44        -6.3598   -0.3583   52.5319 H       1  <0>         0.1300
     45 H45        -4.8569    0.3642   50.7217 H       1  <0>         0.1300
     46 H46        -5.5975    2.0730   49.1127 H       1  <0>         0.1200
     47 H47        -7.8417    3.0640   49.3089 H       1  <0>         0.1300
     48 H48        -9.3548    2.3428   51.1110 H       1  <0>         0.1400
@<TRIPOS>BOND
     1     1     2    1
     2     1    29    1
     3     1    30    1
     4     1    31    1
     5     2     3    1
     6     2     4    1
     7     2    20    1
     8     4     5   am
     9     4    32    1
    10     5     6    2
    11     5     7   am
    12     7     8    1
    13     7    33    1
    14     8     9    1
    15     8    11    1
    16     8    10    1
    17    10    11    1
    18    10    34    1
    19    10    35    1
    20    11    12    1
    21    11    13    1
    22    13    14    1
    23    13    36    1
    24    13    37    1
    25    14    19   ar
    26    14    15   ar
    27    15    16   ar
    28    15    38    1
    29    16    17   ar
    30    16    39    1
    31    17    18   ar
    32    17    40    1
    33    18    19   ar
    34    18    41    1
    35    19    42    1
    36    20    21    2
    37    20    22   am
    38    22    23    1
    39    22    43    1
    40    23    28   ar
    41    23    24   ar
    42    24    25   ar
    43    24    44    1
    44    25    26   ar
    45    25    45    1
    46    26    27   ar
    47    26    46    1
    48    27    28   ar
    49    27    47    1
    50    28    48    1
@<TRIPOS>SUBSTRUCTURE
     1 <0>         1 TEMP              0 ****  ****    0 ROOT


##########                                Name:    ZINC000995593866
##########                DOCK_Rotatable_Bonds:                   7
##########                         Heavy_Atoms:                  24
##########                    Molecular_Weight:             342.389
##########                DOCK_Rotatable_Bonds:                   7
##########                       Formal_Charge:                0.03
##########                     HBond_Acceptors:                   8
##########                        HBond_Donors:                   1
##########                         Heavy_Atoms:                  24
##########                          Grid_Score:          -32.395123
##########                     Grid_vdw_energy:          -31.018282
##########                      Grid_es_energy:           -1.376840
##########           Internal_energy_repulsive:           11.678219

@<TRIPOS>MOLECULE
ZINC000995593866
 48 50 1 0 0
SMALL
USER_CHARGES


@<TRIPOS>ATOM
      1 C1         -7.0720    4.1839   51.3378 C.3     1  ZINC000995593866   -0.1400
      2 C2         -6.0999    3.1152   51.8418 C.3     1  ZINC000995593866   -0.0800
      3 C3         -4.9157    3.7693   52.5563 C.3     1  ZINC000995593866   -0.1400
      4 C4         -6.8247    2.1335   52.7876 C.3     1  ZINC000995593866    0.1200
      5 N5         -7.2264    1.0039   51.9175 N.am    1  ZINC000995593866   -0.6300
      6 C6         -8.3798    0.3072   51.9468 C.2     1  ZINC000995593866    0.5400
      7 O7         -8.5618   -0.5978   51.1602 O.2     1  ZINC000995593866   -0.5300
      8 C8         -9.4432    0.6528   52.9571 C.3     1  ZINC000995593866   -0.1300
      9 C9         -9.2191   -0.1621   54.2325 C.3     1  ZINC000995593866   -0.1000
     10 C10        -8.6253    0.6572   55.3906 C.3     1  ZINC000995593866   -0.1300
     11 C11        -9.5769   -0.1141   56.3202 C.3     1  ZINC000995593866   -0.1400
     12 C12       -10.4831   -0.3171   55.0945 C.3     1  ZINC000995593866   -0.1400
     13 C13        -6.0727    0.8136   51.0079 C.3     1  ZINC000995593866    0.1100
     14 C14        -5.6041    2.2449   50.6682 C.3     1  ZINC000995593866    0.0800
     15 H15        -6.0530    2.5786   49.7328 H       1  ZINC000995593866    0.0700
     16 N16        -4.1388    2.2943   50.5765 N.3     1  ZINC000995593866   -0.6800
     17 C17        -3.6460    1.3889   49.5299 C.3     1  ZINC000995593866    0.1500
     18 C18        -2.1419    1.4600   49.4715 C.2     1  ZINC000995593866    0.1900
     19 N19        -1.3389    0.5782   48.9263 N.2     1  ZINC000995593866   -0.4300
     20 C20        -0.0958    1.0566   49.1125 C.2     1  ZINC000995593866    0.0900
     21 C21         1.1870    0.4050   48.6643 C.3     1  ZINC000995593866    0.3800
     22 F22         1.5123    0.8514   47.3789 F       1  ZINC000995593866   -0.1800
     23 F23         2.2160    0.7432   49.5496 F       1  ZINC000995593866   -0.1700
     24 N24        -0.2041    2.1839   49.7496 N.2     1  ZINC000995593866   -0.3400
     25 O25        -1.3716    2.4367   49.9602 O.3     1  ZINC000995593866    0.1000
     26 H26        -7.9284    3.7024   50.8656 H       1  ZINC000995593866    0.0600
     27 H27        -7.4129    4.7897   52.1772 H       1  ZINC000995593866    0.0600
     28 H28        -6.5672    4.8207   50.6114 H       1  ZINC000995593866    0.0600
     29 H29        -5.2796    4.3591   53.3976 H       1  ZINC000995593866    0.0700
     30 H30        -4.2388    2.9963   52.9202 H       1  ZINC000995593866    0.0700
     31 H31        -4.3848    4.4186   51.8600 H       1  ZINC000995593866    0.0600
     32 H32        -6.1476    1.7891   53.5693 H       1  ZINC000995593866    0.0800
     33 H33        -7.7033    2.6068   53.2259 H       1  ZINC000995593866    0.0900
     34 H34        -9.3901    1.7160   53.1912 H       1  ZINC000995593866    0.0900
     35 H35       -10.4252    0.4201   52.5451 H       1  ZINC000995593866    0.0900
     36 H36        -8.6982   -1.1016   54.0485 H       1  ZINC000995593866    0.1000
     37 H37        -7.5712    0.4505   55.5759 H       1  ZINC000995593866    0.0700
     38 H38        -8.8441    1.7232   55.3285 H       1  ZINC000995593866    0.0800
     39 H39        -9.1530   -1.0403   56.7081 H       1  ZINC000995593866    0.0800
     40 H40       -10.0255    0.5052   57.0970 H       1  ZINC000995593866    0.0700
     41 H41       -11.2100    0.4825   54.9516 H       1  ZINC000995593866    0.0800
     42 H42       -10.9290   -1.3103   55.0410 H       1  ZINC000995593866    0.0700
     43 H43        -5.2782    0.2630   51.5116 H       1  ZINC000995593866    0.0900
     44 H44        -6.3840    0.2910   50.1033 H       1  ZINC000995593866    0.0800
     45 H45        -3.8179    3.2377   50.4191 H       1  ZINC000995593866    0.3600
     46 H46        -3.9529    0.3683   49.7582 H       1  ZINC000995593866    0.1200
     47 H47        -4.0615    1.6865   48.5671 H       1  ZINC000995593866    0.0800
     48 H48         1.0597   -0.6774   48.6516 H       1  ZINC000995593866    0.1500
@<TRIPOS>BOND
     1     1     2    1
     2     1    26    1
     3     1    27    1
     4     1    28    1
     5     2    14    1
     6     2     3    1
     7     2     4    1
     8     3    29    1
     9     3    30    1
    10     3    31    1
    11     4     5    1
    12     4    32    1
    13     4    33    1
    14     5     6   am
    15     5    13    1
    16     6     7    2
    17     6     8    1
    18     8     9    1
    19     8    34    1
    20     8    35    1
    21     9    12    1
    22     9    10    1
    23     9    36    1
    24    10    11    1
    25    10    37    1
    26    10    38    1
    27    11    12    1
    28    11    39    1
    29    11    40    1
    30    12    41    1
    31    12    42    1
    32    13    14    1
    33    13    43    1
    34    13    44    1
    35    14    15    1
    36    14    16    1
    37    16    17    1
    38    16    45    1
    39    17    18    1
    40    17    46    1
    41    17    47    1
    42    18    25    1
    43    18    19    2
    44    19    20    1
    45    20    21    1
    46    20    24    2
    47    21    22    1
    48    21    23    1
    49    21    48    1
    50    24    25    1
@<TRIPOS>SUBSTRUCTURE
     1 ZINC000995593866        1 TEMP              0 ****  ****    0 ROOT


##########                                Name:    ZINC000471198073
##########                DOCK_Rotatable_Bonds:                  12
##########                         Heavy_Atoms:                  30
##########                    Molecular_Weight:             409.528
##########                DOCK_Rotatable_Bonds:                  12
##########                       Formal_Charge:          -0.0399998
##########                     HBond_Acceptors:                   6
##########                        HBond_Donors:                   3
##########                         Heavy_Atoms:                  30
##########                          Grid_Score:          -32.368061
##########                     Grid_vdw_energy:          -31.679148
##########                      Grid_es_energy:           -0.688912
##########           Internal_energy_repulsive:           43.568707

@<TRIPOS>MOLECULE
ZINC000471198073
 61 62 1 0 0
SMALL
USER_CHARGES


@<TRIPOS>ATOM
      1 C1         -7.9111    2.8379   50.2382 C.3     1  ZINC000471198073   -0.1400
      2 C2         -7.6253    1.3557   50.4882 C.3     1  ZINC000471198073   -0.1100
      3 C3         -6.2803    1.2092   51.2027 C.3     1  ZINC000471198073   -0.1500
      4 C4         -8.7168    0.7715   51.3473 C.2     1  ZINC000471198073    0.5200
      5 O5         -8.6766   -0.3979   51.6669 O.2     1  ZINC000471198073   -0.5200
      6 N6         -9.7376    1.5483   51.7607 N.am    1  ZINC000471198073   -0.6700
      7 C7        -10.7511    1.0057   52.5585 C.ar    1  ZINC000471198073    0.1600
      8 C8        -12.0624    0.9891   52.1007 C.ar    1  ZINC000471198073   -0.1500
      9 C9        -13.0641    0.4532   52.8876 C.ar    1  ZINC000471198073   -0.0800
     10 C10       -12.7653   -0.0677   54.1314 C.ar    1  ZINC000471198073   -0.1300
     11 C11       -11.4552   -0.0537   54.5957 C.ar    1  ZINC000471198073    0.1500
     12 N12       -11.1535   -0.5803   55.8543 N.am    1  ZINC000471198073   -0.6400
     13 C13       -10.5980   -1.8039   55.9572 C.2     1  ZINC000471198073    0.5100
     14 O14       -10.3598   -2.4485   54.9568 O.2     1  ZINC000471198073   -0.5000
     15 C15       -10.2755   -2.3668   57.3026 C.2     1  ZINC000471198073    0.5100
     16 O16       -10.0567   -3.5541   57.4271 O.2     1  ZINC000471198073   -0.5100
     17 N17       -10.2275   -1.5563   58.3783 N.am    1  ZINC000471198073   -0.7000
     18 C18        -9.9128   -2.1086   59.6982 C.3     1  ZINC000471198073    0.1200
     19 C19       -10.3011   -1.0984   60.7796 C.3     1  ZINC000471198073   -0.0900
     20 H20       -10.4930   -1.6237   61.7153 H       1  ZINC000471198073    0.0800
     21 C21        -9.1585   -0.1009   60.9798 C.3     1  ZINC000471198073   -0.0800
     22 C22        -8.9631    0.6990   59.7176 C.ar    1  ZINC000471198073   -0.0800
     23 C23        -9.6104    1.9102   59.5598 C.ar    1  ZINC000471198073   -0.1200
     24 C24        -9.4313    2.6439   58.4020 C.ar    1  ZINC000471198073   -0.1200
     25 C25        -8.6045    2.1666   57.4022 C.ar    1  ZINC000471198073   -0.1200
     26 C26        -7.9566    0.9558   57.5604 C.ar    1  ZINC000471198073   -0.1200
     27 C27        -8.1323    0.2243   58.7200 C.ar    1  ZINC000471198073   -0.1200
     28 C28       -11.5629   -0.3487   60.3477 C.3     1  ZINC000471198073   -0.1000
     29 C29       -12.6744   -1.3547   60.0422 C.3     1  ZINC000471198073   -0.1600
     30 C30       -12.0137    0.5828   61.4747 C.3     1  ZINC000471198073   -0.1700
     31 C31       -10.4463    0.4787   53.8053 C.ar    1  ZINC000471198073   -0.1400
     32 H32        -7.1217    3.2605   49.6168 H       1  ZINC000471198073    0.0700
     33 H33        -8.8693    2.9423   49.7291 H       1  ZINC000471198073    0.0600
     34 H34        -7.9462    3.3667   51.1906 H       1  ZINC000471198073    0.0600
     35 H35        -7.5902    0.8269   49.5358 H       1  ZINC000471198073    0.1000
     36 H36        -6.3154    1.7381   52.1551 H       1  ZINC000471198073    0.0600
     37 H37        -6.0766    0.1533   51.3808 H       1  ZINC000471198073    0.0600
     38 H38        -5.4908    1.6318   50.5813 H       1  ZINC000471198073    0.0700
     39 H39        -9.7698    2.4834   51.5051 H       1  ZINC000471198073    0.4100
     40 H40       -12.2996    1.3958   51.1287 H       1  ZINC000471198073    0.1300
     41 H41       -14.0829    0.4418   52.5293 H       1  ZINC000471198073    0.1300
     42 H42       -13.5503   -0.4857   54.7440 H       1  ZINC000471198073    0.1400
     43 H43       -11.3438   -0.0652   56.6540 H       1  ZINC000471198073    0.4200
     44 H44       -10.4011   -0.6072   58.2785 H       1  ZINC000471198073    0.4200
     45 H45       -10.4705   -3.0331   59.8475 H       1  ZINC000471198073    0.0700
     46 H46        -8.8443   -2.3148   59.7604 H       1  ZINC000471198073    0.0800
     47 H47        -9.4032    0.5717   61.8019 H       1  ZINC000471198073    0.0800
     48 H48        -8.2411   -0.6413   61.2131 H       1  ZINC000471198073    0.0800
     49 H49       -10.2564    2.2831   60.3409 H       1  ZINC000471198073    0.1200
     50 H50        -9.9376    3.5898   58.2784 H       1  ZINC000471198073    0.1200
     51 H51        -8.4651    2.7395   56.4974 H       1  ZINC000471198073    0.1200
     52 H52        -7.3108    0.5828   56.7792 H       1  ZINC000471198073    0.1200
     53 H53        -7.6260   -0.7218   58.8437 H       1  ZINC000471198073    0.1200
     54 H54       -11.3489    0.2385   59.4546 H       1  ZINC000471198073    0.0800
     55 H55       -12.9567   -1.8736   60.9583 H       1  ZINC000471198073    0.0600
     56 H56       -13.5406   -0.8284   59.6411 H       1  ZINC000471198073    0.0600
     57 H57       -12.3180   -2.0788   59.3096 H       1  ZINC000471198073    0.0600
     58 H58       -11.1796    1.2149   61.7790 H       1  ZINC000471198073    0.0600
     59 H59       -12.8341    1.2083   61.1227 H       1  ZINC000471198073    0.0600
     60 H60       -12.3486   -0.0113   62.3249 H       1  ZINC000471198073    0.0700
     61 H61        -9.4275    0.4908   54.1637 H       1  ZINC000471198073    0.1400
@<TRIPOS>BOND
     1     1     2    1
     2     1    32    1
     3     1    33    1
     4     1    34    1
     5     2     3    1
     6     2     4    1
     7     2    35    1
     8     3    36    1
     9     3    37    1
    10     3    38    1
    11     4     5    2
    12     4     6   am
    13     6     7    1
    14     6    39    1
    15     7    31   ar
    16     7     8   ar
    17     8     9   ar
    18     8    40    1
    19     9    10   ar
    20     9    41    1
    21    10    11   ar
    22    10    42    1
    23    11    12    1
    24    11    31   ar
    25    12    13   am
    26    12    43    1
    27    13    14    2
    28    13    15    1
    29    15    16    2
    30    15    17   am
    31    17    18    1
    32    17    44    1
    33    18    19    1
    34    18    45    1
    35    18    46    1
    36    19    20    1
    37    19    21    1
    38    19    28    1
    39    21    22    1
    40    21    47    1
    41    21    48    1
    42    22    27   ar
    43    22    23   ar
    44    23    24   ar
    45    23    49    1
    46    24    25   ar
    47    24    50    1
    48    25    26   ar
    49    25    51    1
    50    26    27   ar
    51    26    52    1
    52    27    53    1
    53    28    29    1
    54    28    30    1
    55    28    54    1
    56    29    55    1
    57    29    56    1
    58    29    57    1
    59    30    58    1
    60    30    59    1
    61    30    60    1
    62    31    61    1
@<TRIPOS>SUBSTRUCTURE
     1 ZINC000471198073        1 TEMP              0 ****  ****    0 ROOT


##########                                Name:    ZINC000952280524
##########                DOCK_Rotatable_Bonds:                   9
##########                         Heavy_Atoms:                  25
##########                    Molecular_Weight:             348.486
##########                DOCK_Rotatable_Bonds:                   9
##########                       Formal_Charge:          -0.0100004
##########                     HBond_Acceptors:                   5
##########                        HBond_Donors:                   1
##########                         Heavy_Atoms:                  25
##########                          Grid_Score:          -32.342335
##########                     Grid_vdw_energy:          -32.480232
##########                      Grid_es_energy:            0.137896
##########           Internal_energy_repulsive:           25.096445

@<TRIPOS>MOLECULE
ZINC000952280524
 57 59 1 0 0
SMALL
USER_CHARGES


@<TRIPOS>ATOM
      1 C1         -5.0407    2.2490   49.8500 C.3     1  ZINC000952280524   -0.1800
      2 C2         -6.1730    2.9439   50.6087 C.3     1  ZINC000952280524    0.1400
      3 C3         -5.9701    2.7547   52.1134 C.3     1  ZINC000952280524   -0.1900
      4 O4         -6.1678    4.3390   50.2992 O.3     1  ZINC000952280524   -0.5500
      5 C5         -7.5138    2.3346   50.1943 C.3     1  ZINC000952280524   -0.1200
      6 C6         -7.7501    1.0649   50.9710 C.2     1  ZINC000952280524    0.5300
      7 O7         -7.0681    0.0857   50.7542 O.2     1  ZINC000952280524   -0.5100
      8 N8         -8.7192    1.0176   51.9064 N.am    1  ZINC000952280524   -0.6300
      9 C9         -9.6151    2.1256   52.2689 C.3     1  ZINC000952280524    0.1000
     10 C10       -10.5369    1.6189   53.3980 C.3     1  ZINC000952280524   -0.1300
     11 C11        -9.7328    0.4354   53.9983 C.3     1  ZINC000952280524   -0.1000
     12 H12        -8.9878    0.7905   54.7103 H       1  ZINC000952280524    0.0900
     13 C13       -10.6660   -0.5872   54.6497 C.3     1  ZINC000952280524   -0.0700
     14 C14        -9.9009   -1.8886   54.9003 C.3     1  ZINC000952280524   -0.1300
     15 C15       -10.8472   -2.9214   55.5207 C.3     1  ZINC000952280524    0.1100
     16 N16       -11.4590   -2.3398   56.7233 N.am    1  ZINC000952280524   -0.6100
     17 C17       -11.3939   -2.9826   57.9062 C.2     1  ZINC000952280524    0.5500
     18 O18       -10.8248   -4.0545   57.9852 O.2     1  ZINC000952280524   -0.5500
     19 C19       -12.0113   -2.3876   59.1015 C.2     1  ZINC000952280524   -0.2200
     20 C20       -11.2480   -1.8242   60.0335 C.2     1  ZINC000952280524   -0.0300
     21 C21        -9.7506   -1.7969   59.8660 C.3     1  ZINC000952280524   -0.1500
     22 C22        -9.1216   -0.5033   59.3448 C.3     1  ZINC000952280524   -0.1700
     23 C23        -8.9501   -0.9001   60.8124 C.3     1  ZINC000952280524   -0.1600
     24 C24       -12.1425   -1.0440   56.6121 C.3     1  ZINC000952280524    0.1000
     25 C25       -11.1816   -0.0324   55.9795 C.3     1  ZINC000952280524   -0.1300
     26 C26        -9.0607   -0.1556   52.7312 C.3     1  ZINC000952280524    0.1100
     27 H27        -4.9890    1.2031   50.1524 H       1  ZINC000952280524    0.0700
     28 H28        -5.2313    2.3084   48.7785 H       1  ZINC000952280524    0.0600
     29 H29        -4.0950    2.7403   50.0787 H       1  ZINC000952280524    0.0600
     30 H30        -5.0149    3.1888   52.4086 H       1  ZINC000952280524    0.0600
     31 H31        -6.7768    3.2498   52.6539 H       1  ZINC000952280524    0.0800
     32 H32        -5.9740    1.6906   52.3495 H       1  ZINC000952280524    0.0600
     33 H33        -5.3467    4.7914   50.5362 H       1  ZINC000952280524    0.3700
     34 H34        -8.3151    3.0431   50.4039 H       1  ZINC000952280524    0.1000
     35 H35        -7.4968    2.1102   49.1278 H       1  ZINC000952280524    0.1000
     36 H36        -9.0300    2.9752   52.6211 H       1  ZINC000952280524    0.0700
     37 H37       -10.2126    2.4169   51.4051 H       1  ZINC000952280524    0.0700
     38 H38       -10.6944    2.3965   54.1454 H       1  ZINC000952280524    0.0800
     39 H39       -11.4880    1.2730   52.9933 H       1  ZINC000952280524    0.0800
     40 H40       -11.5089   -0.7836   53.9870 H       1  ZINC000952280524    0.0800
     41 H41        -9.5140   -2.2709   53.9557 H       1  ZINC000952280524    0.0800
     42 H42        -9.0726   -1.6980   55.5827 H       1  ZINC000952280524    0.0700
     43 H43       -11.6260   -3.1806   54.8035 H       1  ZINC000952280524    0.0700
     44 H44       -10.2854   -3.8151   55.7922 H       1  ZINC000952280524    0.0900
     45 H45       -13.0842   -2.4084   59.2222 H       1  ZINC000952280524    0.1300
     46 H46       -11.7014   -1.3862   60.9105 H       1  ZINC000952280524    0.1300
     47 H47        -9.2947   -2.7381   59.5586 H       1  ZINC000952280524    0.1200
     48 H48        -8.2517   -0.5931   58.6942 H       1  ZINC000952280524    0.1000
     49 H49        -9.7908    0.3280   59.1231 H       1  ZINC000952280524    0.1000
     50 H50        -9.5065   -0.3298   61.5563 H       1  ZINC000952280524    0.1000
     51 H51        -7.9674   -1.2510   61.1274 H       1  ZINC000952280524    0.1000
     52 H52       -13.0269   -1.1501   55.9839 H       1  ZINC000952280524    0.0700
     53 H53       -12.4353   -0.6990   57.6037 H       1  ZINC000952280524    0.0900
     54 H54       -10.3413    0.1408   56.6518 H       1  ZINC000952280524    0.0700
     55 H55       -11.7064    0.9066   55.8031 H       1  ZINC000952280524    0.0800
     56 H56        -9.7555   -0.8082   52.2026 H       1  ZINC000952280524    0.0700
     57 H57        -8.1568   -0.7016   53.0009 H       1  ZINC000952280524    0.0800
@<TRIPOS>BOND
     1     1     2    1
     2     1    27    1
     3     1    28    1
     4     1    29    1
     5     2     3    1
     6     2     4    1
     7     2     5    1
     8     3    30    1
     9     3    31    1
    10     3    32    1
    11     4    33    1
    12     5     6    1
    13     5    34    1
    14     5    35    1
    15     6     7    2
    16     6     8   am
    17     8    26    1
    18     8     9    1
    19     9    10    1
    20     9    36    1
    21     9    37    1
    22    10    11    1
    23    10    38    1
    24    10    39    1
    25    11    12    1
    26    11    13    1
    27    11    26    1
    28    13    25    1
    29    13    14    1
    30    13    40    1
    31    14    15    1
    32    14    41    1
    33    14    42    1
    34    15    16    1
    35    15    43    1
    36    15    44    1
    37    16    17   am
    38    16    24    1
    39    17    18    2
    40    17    19    1
    41    19    20    2
    42    19    45    1
    43    20    21    1
    44    20    46    1
    45    21    23    1
    46    21    22    1
    47    21    47    1
    48    22    23    1
    49    22    48    1
    50    22    49    1
    51    23    50    1
    52    23    51    1
    53    24    25    1
    54    24    52    1
    55    24    53    1
    56    25    54    1
    57    25    55    1
    58    26    56    1
    59    26    57    1
@<TRIPOS>SUBSTRUCTURE
     1 ZINC000952280524        1 TEMP              0 ****  ****    0 ROOT


##########                                Name:    ZINC000439870054
##########                DOCK_Rotatable_Bonds:                   5
##########                         Heavy_Atoms:                  27
##########                    Molecular_Weight:             421.974
##########                DOCK_Rotatable_Bonds:                   5
##########                       Formal_Charge:           0.0200003
##########                     HBond_Acceptors:                   9
##########                        HBond_Donors:                   0
##########                         Heavy_Atoms:                  27
##########                          Grid_Score:          -32.341377
##########                     Grid_vdw_energy:          -31.837049
##########                      Grid_es_energy:           -0.504329
##########           Internal_energy_repulsive:           65.234406

@<TRIPOS>MOLECULE
ZINC000439870054
 47 50 1 0 0
SMALL
USER_CHARGES


@<TRIPOS>ATOM
      1 C1        -11.2916   -2.3592   58.6650 C.3     1  ZINC000439870054   -0.1400
      2 C2        -10.1560   -1.4405   58.2099 C.3     1  ZINC000439870054    0.0000
      3 C3         -8.8501   -1.8738   58.8792 C.3     1  ZINC000439870054   -0.1400
      4 C4        -10.0069   -1.5296   56.7129 C.2     1  ZINC000439870054    0.1900
      5 N5        -10.3753   -2.5291   55.9535 N.2     1  ZINC000439870054   -0.2900
      6 N6        -10.0946   -2.2674   54.7227 N.2     1  ZINC000439870054   -0.2700
      7 C7         -9.5371   -1.0986   54.6464 C.2     1  ZINC000439870054    0.1600
      8 C8         -9.0269   -0.3746   53.4238 C.3     1  ZINC000439870054    0.2400
      9 H9         -8.1227   -0.8586   53.0550 H       1  ZINC000439870054    0.1100
     10 C10       -10.0996   -0.3724   52.3328 C.3     1  ZINC000439870054   -0.1300
     11 N11        -8.7246    1.0088   53.8378 N.am    1  ZINC000439870054   -0.6300
     12 C12        -9.0764    2.0558   53.0657 C.2     1  ZINC000439870054    0.5300
     13 O13        -9.6502    1.8679   52.0138 O.2     1  ZINC000439870054   -0.4900
     14 C14        -8.7569    3.4602   53.5093 C.3     1  ZINC000439870054   -0.0700
     15 C15        -7.2934    3.7384   53.2813 C.2     1  ZINC000439870054    0.0900
     16 C16        -6.6165    4.6234   54.0187 C.2     1  ZINC000439870054   -0.2400
     17 S17        -4.9499    4.6600   53.4466 S.3     1  ZINC000439870054    0.1300
     18 C18        -5.3436    3.4431   52.2350 C.2     1  ZINC000439870054    0.1400
     19 C19        -4.4024    2.8761   51.2570 C.2     1  ZINC000439870054   -0.1300
     20 C20        -3.0966    3.2051   51.1497 C.2     1  ZINC000439870054   -0.1000
     21 C21        -2.4149    2.5381   50.1549 C.2     1  ZINC000439870054   -0.1200
     22 C22        -3.1487    1.6688   49.4494 C.2     1  ZINC000439870054   -0.1500
     23 Cl23       -2.5566    0.6928   48.1415 Cl      1  ZINC000439870054    0.0000
     24 S24        -4.8010    1.6591   50.0513 S.3     1  ZINC000439870054    0.2500
     25 N25        -6.6033    3.1216   52.3486 N.2     1  ZINC000439870054   -0.4400
     26 C26        -8.0286    1.2127   55.1174 C.3     1  ZINC000439870054    0.0900
     27 C27        -8.9178    0.7119   56.2617 C.3     1  ZINC000439870054    0.0900
     28 N28        -9.4743   -0.5921   55.9041 N.pl3   1  ZINC000439870054   -0.4700
     29 H29       -11.3994   -2.2948   59.7477 H       1  ZINC000439870054    0.0700
     30 H30       -12.2220   -2.0505   58.1881 H       1  ZINC000439870054    0.0500
     31 H31       -11.0625   -3.3870   58.3832 H       1  ZINC000439870054    0.0700
     32 H32       -10.3850   -0.4128   58.4916 H       1  ZINC000439870054    0.0800
     33 H33        -8.0410   -1.2193   58.5550 H       1  ZINC000439870054    0.0500
     34 H34        -8.9579   -1.8093   59.9619 H       1  ZINC000439870054    0.0700
     35 H35        -8.6211   -2.9015   58.5974 H       1  ZINC000439870054    0.0700
     36 H36       -10.9348    0.2542   52.6457 H       1  ZINC000439870054    0.0600
     37 H37        -9.6768    0.0209   51.4082 H       1  ZINC000439870054    0.0900
     38 H38       -10.4514   -1.3907   52.1671 H       1  ZINC000439870054    0.0700
     39 H39        -9.3550    4.1676   52.9348 H       1  ZINC000439870054    0.1100
     40 H40        -8.9862    3.5673   54.5695 H       1  ZINC000439870054    0.1200
     41 H41        -7.0213    5.2152   54.8263 H       1  ZINC000439870054    0.1800
     42 H42        -2.6244    3.9335   51.7922 H       1  ZINC000439870054    0.1500
     43 H43        -1.3660    2.7046   49.9588 H       1  ZINC000439870054    0.1600
     44 H44        -7.0912    0.6566   55.1145 H       1  ZINC000439870054    0.0900
     45 H45        -7.8225    2.2743   55.2543 H       1  ZINC000439870054    0.1200
     46 H46        -8.3238    0.6201   57.1710 H       1  ZINC000439870054    0.1100
     47 H47        -9.7313    1.4183   56.4268 H       1  ZINC000439870054    0.0900
@<TRIPOS>BOND
     1     1     2    1
     2     1    29    1
     3     1    30    1
     4     1    31    1
     5     2     3    1
     6     2     4    1
     7     2    32    1
     8     3    33    1
     9     3    34    1
    10     3    35    1
    11     4    28    1
    12     4     5    2
    13     5     6    1
    14     6     7    2
    15     7    28    1
    16     7     8    1
    17     8     9    1
    18     8    10    1
    19     8    11    1
    20    10    36    1
    21    10    37    1
    22    10    38    1
    23    11    12   am
    24    11    26    1
    25    12    13    2
    26    12    14    1
    27    14    15    1
    28    14    39    1
    29    14    40    1
    30    15    25    1
    31    15    16    2
    32    16    17    1
    33    16    41    1
    34    17    18    1
    35    18    19    1
    36    18    25    2
    37    19    24    1
    38    19    20    2
    39    20    21    1
    40    20    42    1
    41    21    22    2
    42    21    43    1
    43    22    23    1
    44    22    24    1
    45    26    27    1
    46    26    44    1
    47    26    45    1
    48    27    28    1
    49    27    46    1
    50    27    47    1
@<TRIPOS>SUBSTRUCTURE
     1 ZINC000439870054        1 TEMP              0 ****  ****    0 ROOT


##########                                Name:    ZINC000817655807
##########                DOCK_Rotatable_Bonds:                   3
##########                         Heavy_Atoms:                  24
##########                    Molecular_Weight:             352.774
##########                DOCK_Rotatable_Bonds:                   3
##########                       Formal_Charge:         3.35276e-07
##########                     HBond_Acceptors:                   8
##########                        HBond_Donors:                   0
##########                         Heavy_Atoms:                  24
##########                          Grid_Score:          -32.339584
##########                     Grid_vdw_energy:          -31.781698
##########                      Grid_es_energy:           -0.557887
##########           Internal_energy_repulsive:            2.488632

@<TRIPOS>MOLECULE
ZINC000817655807
 41 44 1 0 0
SMALL
USER_CHARGES


@<TRIPOS>ATOM
      1 C1        -11.4509    1.6035   52.3960 C.3     1  ZINC000817655807    0.1100
      2 N2        -10.0762    1.1027   52.3200 N.am    1  ZINC000817655807   -0.6400
      3 C3         -8.8645    1.9358   52.2187 C.3     1  ZINC000817655807    0.1000
      4 C4         -7.7322    0.9057   52.1736 C.3     1  ZINC000817655807    0.0500
      5 C5         -6.7162    1.0833   51.0452 C.3     1  ZINC000817655807    0.1200
      6 N6         -5.9159    1.8383   52.0319 N.am    1  ZINC000817655807   -0.6500
      7 C7         -4.9611    2.7855   51.9450 C.2     1  ZINC000817655807    0.5500
      8 O8         -4.4630    3.2388   52.9536 O.2     1  ZINC000817655807   -0.5100
      9 C9         -4.5123    3.2814   50.5945 C.3     1  ZINC000817655807   -0.0900
     10 C10        -3.2138    2.6143   50.2205 C.ar    1  ZINC000817655807   -0.0600
     11 C11        -3.2181    1.5228   49.3728 C.ar    1  ZINC000817655807   -0.0900
     12 C12        -2.0282    0.9066   49.0290 C.ar    1  ZINC000817655807   -0.0300
     13 Cl13       -2.0375   -0.4646   47.9644 Cl      1  ZINC000817655807   -0.0500
     14 C14        -0.8273    1.3840   49.5343 C.ar    1  ZINC000817655807    0.0600
     15 O15         0.3351    0.7628   49.1937 O.3     1  ZINC000817655807   -0.2900
     16 C16         1.5455    1.4935   49.4199 C.3     1  ZINC000817655807    0.0200
     17 C17         1.4818    2.1056   50.8258 C.3     1  ZINC000817655807    0.0200
     18 O18         0.3433    2.9717   50.8865 O.3     1  ZINC000817655807   -0.3000
     19 C19        -0.8237    2.4840   50.3836 C.ar    1  ZINC000817655807    0.0600
     20 C20        -2.0200    3.0990   50.7213 C.ar    1  ZINC000817655807   -0.0900
     21 C21        -6.5809    1.1402   53.1519 C.3     1  ZINC000817655807    0.1100
     22 O22        -8.3887   -0.3807   52.2508 O.3     1  ZINC000817655807   -0.3000
     23 C23        -9.7137   -0.1890   52.3369 C.2     1  ZINC000817655807    0.6400
     24 O24       -10.5124   -1.1014   52.4154 O.2     1  ZINC000817655807   -0.5100
     25 H25       -12.1405    0.7624   52.4687 H       1  ZINC000817655807    0.0900
     26 H26       -11.5583    2.2383   53.2757 H       1  ZINC000817655807    0.0700
     27 H27       -11.6769    2.1823   51.5005 H       1  ZINC000817655807    0.0700
     28 H28        -8.8811    2.5291   51.3044 H       1  ZINC000817655807    0.1000
     29 H29        -8.7653    2.5782   53.0935 H       1  ZINC000817655807    0.1000
     30 H30        -6.2512    0.1523   50.7209 H       1  ZINC000817655807    0.1100
     31 H31        -7.0803    1.6905   50.2165 H       1  ZINC000817655807    0.1000
     32 H32        -5.2711    3.0430   49.8493 H       1  ZINC000817655807    0.1100
     33 H33        -4.3680    4.3611   50.6335 H       1  ZINC000817655807    0.1100
     34 H34        -4.1519    1.1501   48.9783 H       1  ZINC000817655807    0.1400
     35 H35         2.3997    0.8201   49.3506 H       1  ZINC000817655807    0.1300
     36 H36         1.6404    2.2863   48.6779 H       1  ZINC000817655807    0.0800
     37 H37         1.3808    1.3133   51.5676 H       1  ZINC000817655807    0.0800
     38 H38         2.3893    2.6775   51.0192 H       1  ZINC000817655807    0.1300
     39 H39        -2.0193    3.9552   51.3796 H       1  ZINC000817655807    0.1400
     40 H40        -6.8384    1.7925   53.9864 H       1  ZINC000817655807    0.1000
     41 H41        -6.0751    0.2265   53.4638 H       1  ZINC000817655807    0.1100
@<TRIPOS>BOND
     1     1     2    1
     2     1    25    1
     3     1    26    1
     4     1    27    1
     5     2    23   am
     6     2     3    1
     7     3     4    1
     8     3    28    1
     9     3    29    1
    10     4    21    1
    11     4     5    1
    12     4    22    1
    13     5     6    1
    14     5    30    1
    15     5    31    1
    16     6     7   am
    17     6    21    1
    18     7     8    2
    19     7     9    1
    20     9    10    1
    21     9    32    1
    22     9    33    1
    23    10    20   ar
    24    10    11   ar
    25    11    12   ar
    26    11    34    1
    27    12    13    1
    28    12    14   ar
    29    14    19   ar
    30    14    15    1
    31    15    16    1
    32    16    17    1
    33    16    35    1
    34    16    36    1
    35    17    18    1
    36    17    37    1
    37    17    38    1
    38    18    19    1
    39    19    20   ar
    40    20    39    1
    41    21    40    1
    42    21    41    1
    43    22    23    1
    44    23    24    2
@<TRIPOS>SUBSTRUCTURE
     1 ZINC000817655807        1 TEMP              0 ****  ****    0 ROOT


##########                                Name:    ZINC000980108339
##########                DOCK_Rotatable_Bonds:                   9
##########                         Heavy_Atoms:                  25
##########                    Molecular_Weight:             348.445
##########                DOCK_Rotatable_Bonds:                   9
##########                       Formal_Charge:          -0.0100001
##########                     HBond_Acceptors:                   7
##########                        HBond_Donors:                   3
##########                         Heavy_Atoms:                  25
##########                          Grid_Score:          -32.322521
##########                     Grid_vdw_energy:          -29.321285
##########                      Grid_es_energy:           -3.001235
##########           Internal_energy_repulsive:           17.525904

@<TRIPOS>MOLECULE
ZINC000980108339
 53 56 1 0 0
SMALL
USER_CHARGES


@<TRIPOS>ATOM
      1 C1        -10.6963   -2.7401   56.3382 C.3     1  ZINC000980108339    0.1200
      2 N2         -9.9438   -2.5292   57.5774 N.am    1  ZINC000980108339   -0.6400
      3 C3         -9.3799   -1.2466   58.0240 C.3     1  ZINC000980108339    0.1100
      4 C4         -8.7031   -1.5881   59.3657 C.3     1  ZINC000980108339    0.1000
      5 H5         -7.6320   -1.3924   59.3148 H       1  ZINC000980108339    0.1200
      6 C6         -9.3300   -0.8031   60.4891 C.2     1  ZINC000980108339    0.5000
      7 O7        -10.3451   -1.2051   61.0171 O.2     1  ZINC000980108339   -0.5200
      8 N8         -8.7624    0.3456   60.9071 N.am    1  ZINC000980108339   -0.7200
      9 C9         -9.3727    1.1096   61.9980 C.3     1  ZINC000980108339    0.1300
     10 C10        -8.4716    1.0444   63.2328 C.3     1  ZINC000980108339   -0.1200
     11 H11        -7.6155    1.7160   63.1679 H       1  ZINC000980108339    0.1000
     12 C12        -9.2386    1.1505   64.5614 C.3     1  ZINC000980108339   -0.1400
     13 C13        -8.2866    0.0726   65.1063 C.3     1  ZINC000980108339    0.1200
     14 H14        -8.7793   -0.6655   65.7392 H       1  ZINC000980108339    0.1100
     15 N15        -7.0679    0.6170   65.7102 N.am    1  ZINC000980108339   -0.7200
     16 C16        -7.0247    0.8649   67.0342 C.2     1  ZINC000980108339    0.5200
     17 O17        -7.9943    0.6360   67.7261 O.2     1  ZINC000980108339   -0.5300
     18 C18        -5.7717    1.4267   67.6552 C.3     1  ZINC000980108339   -0.1100
     19 C19        -5.8313    2.9553   67.6306 C.3     1  ZINC000980108339   -0.1300
     20 H20        -4.8670    3.4636   67.6336 H       1  ZINC000980108339    0.1200
     21 C21        -6.9874    3.6292   68.3724 C.3     1  ZINC000980108339   -0.1700
     22 C22        -6.9700    3.6052   66.8419 C.3     1  ZINC000980108339   -0.1200
     23 H23        -7.6768    2.9438   66.3409 H       1  ZINC000980108339    0.1000
     24 C24        -6.6688    4.9191   66.1183 C.3     1  ZINC000980108339   -0.1300
     25 C25        -5.3407    5.0227   65.3656 C.3     1  ZINC000980108339   -0.1800
     26 C26        -6.6526    4.8956   64.5886 C.3     1  ZINC000980108339   -0.1800
     27 C27        -8.1000   -0.3885   63.6494 C.3     1  ZINC000980108339   -0.1400
     28 N28        -8.9577   -3.0268   59.5327 N.am    1  ZINC000980108339   -0.7200
     29 C29        -9.6651   -3.4729   58.4863 C.2     1  ZINC000980108339    0.7000
     30 O30       -10.0147   -4.6313   58.3678 O.2     1  ZINC000980108339   -0.5800
     31 H31       -10.9956   -3.7859   56.2683 H       1  ZINC000980108339    0.0900
     32 H32       -11.5841   -2.1076   56.3401 H       1  ZINC000980108339    0.0600
     33 H33       -10.0693   -2.4837   55.4843 H       1  ZINC000980108339    0.0600
     34 H34        -8.6447   -0.8815   57.3067 H       1  ZINC000980108339    0.1000
     35 H35       -10.1709   -0.5113   58.1707 H       1  ZINC000980108339    0.0900
     36 H36        -7.9497    0.6665   60.4857 H       1  ZINC000980108339    0.4000
     37 H37        -9.4934    2.1484   61.6908 H       1  ZINC000980108339    0.0700
     38 H38       -10.3480    0.6858   62.2372 H       1  ZINC000980108339    0.0700
     39 H39        -9.1299    2.1176   65.0523 H       1  ZINC000980108339    0.0800
     40 H40       -10.2761    0.8231   64.4940 H       1  ZINC000980108339    0.1000
     41 H41        -6.2921    0.7990   65.1571 H       1  ZINC000980108339    0.4000
     42 H42        -5.6917    1.0828   68.6865 H       1  ZINC000980108339    0.1000
     43 H43        -4.9030    1.0878   67.0908 H       1  ZINC000980108339    0.1000
     44 H44        -7.7054    2.9835   68.8780 H       1  ZINC000980108339    0.0900
     45 H45        -6.7837    4.5809   68.8632 H       1  ZINC000980108339    0.1000
     46 H46        -7.0440    5.8200   66.6039 H       1  ZINC000980108339    0.1000
     47 H47        -4.8419    5.9919   65.3559 H       1  ZINC000980108339    0.0900
     48 H48        -4.6818    4.1548   65.3859 H       1  ZINC000980108339    0.0900
     49 H49        -6.8567    3.9440   64.0977 H       1  ZINC000980108339    0.0900
     50 H50        -7.0169    5.7811   64.0678 H       1  ZINC000980108339    0.0900
     51 H51        -8.8261   -1.1369   63.3319 H       1  ZINC000980108339    0.1000
     52 H52        -7.0736   -0.6633   63.4064 H       1  ZINC000980108339    0.0800
     53 H53        -8.6636   -3.5662   60.2833 H       1  ZINC000980108339    0.4400
@<TRIPOS>BOND
     1     1     2    1
     2     1    31    1
     3     1    32    1
     4     1    33    1
     5     2    29   am
     6     2     3    1
     7     3     4    1
     8     3    34    1
     9     3    35    1
    10     4     5    1
    11     4     6    1
    12     4    28    1
    13     6     7    2
    14     6     8   am
    15     8     9    1
    16     8    36    1
    17     9    10    1
    18     9    37    1
    19     9    38    1
    20    10    11    1
    21    10    27    1
    22    10    12    1
    23    12    13    1
    24    12    39    1
    25    12    40    1
    26    13    14    1
    27    13    15    1
    28    13    27    1
    29    15    16   am
    30    15    41    1
    31    16    17    2
    32    16    18    1
    33    18    19    1
    34    18    42    1
    35    18    43    1
    36    19    20    1
    37    19    22    1
    38    19    21    1
    39    21    22    1
    40    21    44    1
    41    21    45    1
    42    22    23    1
    43    22    24    1
    44    24    26    1
    45    24    25    1
    46    24    46    1
    47    25    26    1
    48    25    47    1
    49    25    48    1
    50    26    49    1
    51    26    50    1
    52    27    51    1
    53    27    52    1
    54    28    29   am
    55    28    53    1
    56    29    30    2
@<TRIPOS>SUBSTRUCTURE
     1 ZINC000980108339        1 TEMP              0 ****  ****    0 ROOT


##########                                Name:    ZINC000740843182
##########                DOCK_Rotatable_Bonds:                  10
##########                         Heavy_Atoms:                  24
##########                    Molecular_Weight:              419.34
##########                DOCK_Rotatable_Bonds:                  10
##########                       Formal_Charge:          0.00999957
##########                     HBond_Acceptors:                   7
##########                        HBond_Donors:                   3
##########                         Heavy_Atoms:                  24
##########                          Grid_Score:          -32.317833
##########                     Grid_vdw_energy:          -30.959990
##########                      Grid_es_energy:           -1.357843
##########           Internal_energy_repulsive:           15.504889

@<TRIPOS>MOLECULE
ZINC000740843182
 47 48 1 0 0
SMALL
USER_CHARGES


@<TRIPOS>ATOM
      1 C1          3.6859    2.0646   53.7869 C.3     1  ZINC000740843182   -0.1500
      2 C2          2.6794    2.0028   52.6361 C.3     1  ZINC000740843182   -0.1000
      3 H3          2.2318    1.0097   52.5979 H       1  ZINC000740843182    0.0900
      4 C4          1.5843    3.0476   52.8599 C.3     1  ZINC000740843182    0.1200
      5 N5          0.3296    2.5739   52.2706 N.am    1  ZINC000740843182   -0.7200
      6 C6         -0.0812    3.0572   51.0814 C.2     1  ZINC000740843182    0.5500
      7 O7          0.5887    3.8873   50.4986 O.2     1  ZINC000740843182   -0.5000
      8 C8         -1.3462    2.5779   50.4861 C.ar    1  ZINC000740843182   -0.1300
      9 C9         -2.5661    3.1034   50.9148 C.ar    1  ZINC000740843182    0.0200
     10 C10        -3.7432    2.6520   50.3546 C.ar    1  ZINC000740843182   -0.6800
     11 S11        -5.2840    3.3144   50.8948 S.o2    1  ZINC000740843182    2.7000
     12 O12        -4.9797    4.4955   51.6239 O.2     1  ZINC000740843182   -0.9400
     13 O13        -6.1456    3.2989   49.7649 O.2     1  ZINC000740843182   -0.9500
     14 N14        -5.9228    2.2437   51.9847 N.am    1  ZINC000740843182   -1.0900
     15 C15        -6.2130    0.8673   51.5755 C.3     1  ZINC000740843182    0.0800
     16 C16        -7.3576    0.1446   52.2885 C.3     1  ZINC000740843182   -0.1800
     17 C17        -7.5310    0.6115   50.8418 C.3     1  ZINC000740843182   -0.1900
     18 C18        -3.7170    1.6808   49.3695 C.ar    1  ZINC000740843182    0.0100
     19 C19        -2.5121    1.1551   48.9392 C.ar    1  ZINC000740843182   -0.1200
     20 C20        -1.3260    1.6010   49.4876 C.ar    1  ZINC000740843182    0.0100
     21 Br21        0.3206    0.8815   48.8986 Br      1  ZINC000740843182    0.0100
     22 C22         3.3964    2.2904   51.3155 C.3     1  ZINC000740843182   -0.1400
     23 C23         4.4184    1.1859   51.0391 C.3     1  ZINC000740843182    0.1000
     24 H24         5.1472    1.1542   51.8489 H       1  ZINC000740843182    0.1000
     25 C25         5.1355    1.4734   49.7185 C.3     1  ZINC000740843182   -0.1900
     26 O26         3.7476   -0.0730   50.9526 O.3     1  ZINC000740843182   -0.5600
     27 H27         4.4660    1.3202   53.6276 H       1  ZINC000740843182    0.0600
     28 H28         4.1334    3.0577   53.8252 H       1  ZINC000740843182    0.0600
     29 H29         3.1750    1.8598   54.7278 H       1  ZINC000740843182    0.0500
     30 H30         1.4464    3.2060   53.9295 H       1  ZINC000740843182    0.0700
     31 H31         1.8757    3.9861   52.3882 H       1  ZINC000740843182    0.0700
     32 H32        -0.2056    1.9124   52.7363 H       1  ZINC000740843182    0.4000
     33 H33        -2.5885    3.8615   51.6836 H       1  ZINC000740843182    0.1500
     34 H34        -6.1048    2.5279   52.8941 H       1  ZINC000740843182    0.4200
     35 H35        -5.3486    0.2727   51.2797 H       1  ZINC000740843182    0.1400
     36 H36        -7.2465   -0.9257   52.4621 H       1  ZINC000740843182    0.1100
     37 H37        -7.8948    0.6934   53.0621 H       1  ZINC000740843182    0.1000
     38 H38        -8.1822    1.4672   50.6636 H       1  ZINC000740843182    0.1000
     39 H39        -7.5339   -0.1518   50.0636 H       1  ZINC000740843182    0.1100
     40 H40        -4.6418    1.3314   48.9346 H       1  ZINC000740843182    0.1600
     41 H41        -2.4987    0.3973   48.1699 H       1  ZINC000740843182    0.1500
     42 H42         2.6675    2.3219   50.5057 H       1  ZINC000740843182    0.0700
     43 H43         3.9081    3.2505   51.3814 H       1  ZINC000740843182    0.0800
     44 H44         5.6472    2.4336   49.7845 H       1  ZINC000740843182    0.0700
     45 H45         5.8636    0.6865   49.5215 H       1  ZINC000740843182    0.0600
     46 H46         4.4067    1.5050   48.9086 H       1  ZINC000740843182    0.0600
     47 H47         3.2704   -0.3204   51.7565 H       1  ZINC000740843182    0.3700
@<TRIPOS>BOND
     1     1     2    1
     2     1    27    1
     3     1    28    1
     4     1    29    1
     5     2     3    1
     6     2     4    1
     7     2    22    1
     8     4     5    1
     9     4    30    1
    10     4    31    1
    11     5     6   am
    12     5    32    1
    13     6     7    2
    14     6     8    1
    15     8    20   ar
    16     8     9   ar
    17     9    10   ar
    18     9    33    1
    19    10    11    1
    20    10    18   ar
    21    11    12    2
    22    11    13    2
    23    11    14   am
    24    14    15    1
    25    14    34    1
    26    15    17    1
    27    15    16    1
    28    15    35    1
    29    16    17    1
    30    16    36    1
    31    16    37    1
    32    17    38    1
    33    17    39    1
    34    18    19   ar
    35    18    40    1
    36    19    20   ar
    37    19    41    1
    38    20    21    1
    39    22    23    1
    40    22    42    1
    41    22    43    1
    42    23    24    1
    43    23    25    1
    44    23    26    1
    45    25    44    1
    46    25    45    1
    47    25    46    1
    48    26    47    1
@<TRIPOS>SUBSTRUCTURE
     1 ZINC000740843182        1 TEMP              0 ****  ****    0 ROOT


##########                                Name:    ZINC000962730513
##########                DOCK_Rotatable_Bonds:                   6
##########                         Heavy_Atoms:                  24
##########                    Molecular_Weight:             342.465
##########                DOCK_Rotatable_Bonds:                   6
##########                       Formal_Charge:         -0.00999998
##########                     HBond_Acceptors:                   6
##########                        HBond_Donors:                   1
##########                         Heavy_Atoms:                  24
##########                          Grid_Score:          -32.306393
##########                     Grid_vdw_energy:          -32.990875
##########                      Grid_es_energy:            0.684482
##########           Internal_energy_repulsive:           11.361842

@<TRIPOS>MOLECULE
ZINC000962730513
 46 49 1 0 0
SMALL
USER_CHARGES


@<TRIPOS>ATOM
      1 C1         -9.6418   -0.5651   59.8773 C.3     1  ZINC000962730513   -0.1400
      2 C2         -9.0387   -0.6025   58.4716 C.3     1  ZINC000962730513   -0.0800
      3 C3         -9.9363   -1.3998   57.5608 C.2     1  ZINC000962730513   -0.0100
      4 C4         -9.9045   -1.2990   56.1984 C.2     1  ZINC000962730513   -0.2800
      5 C5         -9.0147   -0.4225   55.4310 C.2     1  ZINC000962730513    0.6000
      6 O6         -7.9398   -0.0899   55.8948 O.2     1  ZINC000962730513   -0.5200
      7 N7         -9.3870    0.0149   54.2118 N.am    1  ZINC000962730513   -0.7000
      8 C8         -8.4985    0.8923   53.4456 C.3     1  ZINC000962730513    0.1200
      9 H9         -8.1193    1.7615   53.9830 H       1  ZINC000962730513    0.1400
     10 C10        -8.7866    1.0571   51.9521 C.3     1  ZINC000962730513   -0.1700
     11 H11        -9.6670    0.5821   51.5191 H       1  ZINC000962730513    0.1200
     12 C12        -8.2186    2.3001   51.2342 C.3     1  ZINC000962730513    0.0700
     13 N13        -6.8541    1.8957   50.8083 N.3     1  ZINC000962730513   -0.5000
     14 C14        -6.0087    3.0718   50.5633 C.3     1  ZINC000962730513    0.1100
     15 C15        -4.6041    2.6245   50.2504 C.ar    1  ZINC000962730513    0.3200
     16 N16        -4.4221    1.6089   49.4303 N.ar    1  ZINC000962730513   -0.5100
     17 C17        -3.2032    1.1882   49.1324 C.ar    1  ZINC000962730513    0.1500
     18 C18        -2.1119    1.8307   49.6952 C.ar    1  ZINC000962730513   -0.1900
     19 C19        -0.7072    1.3837   49.3820 C.3     1  ZINC000962730513   -0.1100
     20 C20        -2.3434    2.8946   50.5529 C.ar    1  ZINC000962730513    0.1500
     21 N21        -3.5903    3.2625   50.8000 N.ar    1  ZINC000962730513   -0.5000
     22 C22        -6.3373    1.0971   51.9496 C.3     1  ZINC000962730513    0.0700
     23 C23        -7.5701    0.2357   52.4221 C.3     1  ZINC000962730513   -0.1700
     24 H24        -7.4994   -0.8470   52.3178 H       1  ZINC000962730513    0.1300
     25 S25       -11.1015   -2.3897   55.5132 S.3     1  ZINC000962730513    0.1900
     26 C26       -11.5769   -2.9175   57.0645 C.2     1  ZINC000962730513   -0.2200
     27 C27       -10.8645   -2.3049   58.0176 C.2     1  ZINC000962730513   -0.1500
     28 H28       -10.6261   -0.0986   59.8380 H       1  ZINC000962730513    0.0600
     29 H29        -9.7364   -1.5816   60.2591 H       1  ZINC000962730513    0.0500
     30 H30        -8.9925    0.0115   60.5361 H       1  ZINC000962730513    0.0600
     31 H31        -8.9440    0.4141   58.0898 H       1  ZINC000962730513    0.1000
     32 H32        -8.0543   -1.0689   58.5109 H       1  ZINC000962730513    0.0700
     33 H33       -10.2433   -0.2511   53.8417 H       1  ZINC000962730513    0.4000
     34 H34        -8.8291    2.5501   50.3664 H       1  ZINC000962730513    0.0900
     35 H35        -8.1678    3.1454   51.9204 H       1  ZINC000962730513    0.0500
     36 H36        -6.4068    3.6360   49.7198 H       1  ZINC000962730513    0.1000
     37 H37        -5.9994    3.7039   51.4512 H       1  ZINC000962730513    0.0700
     38 H38        -3.0611    0.3553   48.4598 H       1  ZINC000962730513    0.1700
     39 H39        -0.3397    1.9247   48.5101 H       1  ZINC000962730513    0.0800
     40 H40        -0.0616    1.5892   50.2359 H       1  ZINC000962730513    0.0700
     41 H41        -0.7044    0.3138   49.1736 H       1  ZINC000962730513    0.0700
     42 H42        -1.5172    3.4186   51.0103 H       1  ZINC000962730513    0.1700
     43 H43        -5.5314    0.4412   51.6205 H       1  ZINC000962730513    0.0800
     44 H44        -5.9921    1.7541   52.7478 H       1  ZINC000962730513    0.0600
     45 H45       -12.3469   -3.6511   57.2522 H       1  ZINC000962730513    0.1700
     46 H46       -11.0138   -2.5013   59.0690 H       1  ZINC000962730513    0.1500
@<TRIPOS>BOND
     1     1     2    1
     2     1    28    1
     3     1    29    1
     4     1    30    1
     5     2     3    1
     6     2    31    1
     7     2    32    1
     8     3    27    1
     9     3     4    2
    10     4     5    1
    11     4    25    1
    12     5     6    2
    13     5     7   am
    14     7     8    1
    15     7    33    1
    16     8     9    1
    17     8    23    1
    18     8    10    1
    19    10    11    1
    20    10    23    1
    21    10    12    1
    22    12    13    1
    23    12    34    1
    24    12    35    1
    25    13    14    1
    26    13    22    1
    27    14    15    1
    28    14    36    1
    29    14    37    1
    30    15    21   ar
    31    15    16   ar
    32    16    17   ar
    33    17    18   ar
    34    17    38    1
    35    18    19    1
    36    18    20   ar
    37    19    39    1
    38    19    40    1
    39    19    41    1
    40    20    21   ar
    41    20    42    1
    42    22    23    1
    43    22    43    1
    44    22    44    1
    45    23    24    1
    46    25    26    1
    47    26    27    2
    48    26    45    1
    49    27    46    1
@<TRIPOS>SUBSTRUCTURE
     1 ZINC000962730513        1 TEMP              0 ****  ****    0 ROOT


##########                                Name:    ZINC000989658617
##########                DOCK_Rotatable_Bonds:                   6
##########                         Heavy_Atoms:                  24
##########                    Molecular_Weight:             334.418
##########                DOCK_Rotatable_Bonds:                   6
##########                       Formal_Charge:          -0.0100001
##########                     HBond_Acceptors:                   7
##########                        HBond_Donors:                   2
##########                         Heavy_Atoms:                  24
##########                          Grid_Score:          -32.292625
##########                     Grid_vdw_energy:          -31.076645
##########                      Grid_es_energy:           -1.215980
##########           Internal_energy_repulsive:            8.767319

@<TRIPOS>MOLECULE
ZINC000989658617
 50 52 1 0 0
SMALL
USER_CHARGES


@<TRIPOS>ATOM
      1 C1         -3.3344    1.1415   49.6549 C.3     1  ZINC000989658617    0.0300
      2 O2         -4.1324    2.1977   50.1934 O.3     1  ZINC000989658617   -0.3700
      3 C3         -5.5306    2.0615   49.9311 C.3     1  ZINC000989658617    0.0500
      4 C4         -6.1438    1.1317   50.9462 C.2     1  ZINC000989658617    0.5300
      5 O5         -6.0756   -0.0688   50.7880 O.2     1  ZINC000989658617   -0.5100
      6 N6         -6.7680    1.6342   52.0298 N.am    1  ZINC000989658617   -0.6200
      7 C7         -6.9232    3.0660   52.3449 C.3     1  ZINC000989658617    0.1000
      8 C8         -7.1135    3.1155   53.8815 C.3     1  ZINC000989658617   -0.1500
      9 C9         -7.9643    1.8422   54.1312 C.3     1  ZINC000989658617    0.1400
     10 H10        -9.0200    2.0416   53.9470 H       1  ZINC000989658617    0.1100
     11 N11        -7.7631    1.3433   55.4938 N.am    1  ZINC000989658617   -0.7100
     12 C12        -8.6118    1.7053   56.4762 C.2     1  ZINC000989658617    0.6100
     13 O13        -9.5435    2.4470   56.2319 O.2     1  ZINC000989658617   -0.5200
     14 C14        -8.4099    1.2009   57.8497 C.2     1  ZINC000989658617   -0.0100
     15 N15        -7.7619    1.8105   58.8277 N.2     1  ZINC000989658617   -0.2600
     16 N16        -7.7805    1.0851   59.8923 N.pl3   1  ZINC000989658617   -0.3700
     17 C17        -8.4536   -0.0540   59.6614 C.2     1  ZINC000989658617    0.0100
     18 C18        -8.8743   -0.0175   58.3731 C.2     1  ZINC000989658617   -0.1400
     19 C19        -9.6659   -1.1056   57.7016 C.3     1  ZINC000989658617   -0.0400
     20 C20        -9.5547   -2.3775   58.5531 C.3     1  ZINC000989658617   -0.0900
     21 H21        -8.5430   -2.7765   58.4796 H       1  ZINC000989658617    0.0700
     22 C22       -10.5521   -3.4203   58.0447 C.3     1  ZINC000989658617   -0.1500
     23 C23        -9.8666   -2.0435   60.0144 C.3     1  ZINC000989658617   -0.1100
     24 C24        -8.7350   -1.1950   60.6050 C.3     1  ZINC000989658617   -0.0500
     25 C25        -7.4124    0.8455   53.0901 C.3     1  ZINC000989658617    0.1300
     26 H26        -6.6768    0.1908   53.5573 H       1  ZINC000989658617    0.0800
     27 C27        -8.5568    0.0119   52.5101 C.3     1  ZINC000989658617   -0.1600
     28 H28        -3.6513    0.1913   50.0849 H       1  ZINC000989658617    0.0500
     29 H29        -3.4570    1.1092   48.5723 H       1  ZINC000989658617    0.0400
     30 H30        -2.2864    1.3184   49.8969 H       1  ZINC000989658617    0.0900
     31 H31        -6.0094    3.0384   49.9971 H       1  ZINC000989658617    0.0800
     32 H32        -5.6744    1.6531   48.9307 H       1  ZINC000989658617    0.0800
     33 H33        -6.0286    3.6174   52.0555 H       1  ZINC000989658617    0.0800
     34 H34        -7.8000    3.4725   51.8409 H       1  ZINC000989658617    0.0800
     35 H35        -6.1547    3.0518   54.3961 H       1  ZINC000989658617    0.0800
     36 H36        -7.6562    4.0126   54.1794 H       1  ZINC000989658617    0.1000
     37 H37        -7.0190    0.7525   55.6890 H       1  ZINC000989658617    0.4100
     38 H38        -7.3687    1.3263   60.7368 H       1  ZINC000989658617    0.4500
     39 H39       -10.7109   -0.8053   57.6243 H       1  ZINC000989658617    0.0800
     40 H40        -9.2624   -1.2930   56.7066 H       1  ZINC000989658617    0.0800
     41 H41       -10.3300   -3.6588   57.0045 H       1  ZINC000989658617    0.0600
     42 H42       -10.4733   -4.3238   58.6494 H       1  ZINC000989658617    0.0600
     43 H43       -11.5639   -3.0214   58.1178 H       1  ZINC000989658617    0.0600
     44 H44       -10.8007   -1.4846   60.0674 H       1  ZINC000989658617    0.0700
     45 H45        -9.9642   -2.9672   60.5849 H       1  ZINC000989658617    0.0800
     46 H46        -7.8379   -1.8043   60.7147 H       1  ZINC000989658617    0.0800
     47 H47        -9.0368   -0.8063   61.5776 H       1  ZINC000989658617    0.0800
     48 H48        -9.2792    0.6714   52.0291 H       1  ZINC000989658617    0.0600
     49 H49        -8.1598   -0.6892   51.7761 H       1  ZINC000989658617    0.0700
     50 H50        -9.0468   -0.5403   53.3121 H       1  ZINC000989658617    0.0700
@<TRIPOS>BOND
     1     1     2    1
     2     1    28    1
     3     1    29    1
     4     1    30    1
     5     2     3    1
     6     3     4    1
     7     3    31    1
     8     3    32    1
     9     4     5    2
    10     4     6   am
    11     6    25    1
    12     6     7    1
    13     7     8    1
    14     7    33    1
    15     7    34    1
    16     8     9    1
    17     8    35    1
    18     8    36    1
    19     9    10    1
    20     9    11    1
    21     9    25    1
    22    11    12   am
    23    11    37    1
    24    12    13    2
    25    12    14    1
    26    14    18    1
    27    14    15    2
    28    15    16    1
    29    16    17    1
    30    16    38    1
    31    17    24    1
    32    17    18    2
    33    18    19    1
    34    19    20    1
    35    19    39    1
    36    19    40    1
    37    20    21    1
    38    20    22    1
    39    20    23    1
    40    22    41    1
    41    22    42    1
    42    22    43    1
    43    23    24    1
    44    23    44    1
    45    23    45    1
    46    24    46    1
    47    24    47    1
    48    25    26    1
    49    25    27    1
    50    27    48    1
    51    27    49    1
    52    27    50    1
@<TRIPOS>SUBSTRUCTURE
     1 ZINC000989658617        1 TEMP              0 ****  ****    0 ROOT


##########                                Name:    ZINC000880838037
##########                DOCK_Rotatable_Bonds:                   9
##########                         Heavy_Atoms:                  24
##########                    Molecular_Weight:             365.477
##########                DOCK_Rotatable_Bonds:                   9
##########                       Formal_Charge:           0.0200001
##########                     HBond_Acceptors:                   8
##########                        HBond_Donors:                   3
##########                         Heavy_Atoms:                  24
##########                          Grid_Score:          -32.281937
##########                     Grid_vdw_energy:          -31.187956
##########                      Grid_es_energy:           -1.093982
##########           Internal_energy_repulsive:           11.158219

@<TRIPOS>MOLECULE
ZINC000880838037
 43 44 1 0 0
SMALL
USER_CHARGES


@<TRIPOS>ATOM
      1 C1        -10.5108   -2.5581   55.0884 C.3     1  ZINC000880838037    0.0300
      2 O2        -10.7501   -1.2039   54.6998 O.3     1  ZINC000880838037   -0.3100
      3 C3         -9.6779   -0.3693   54.6792 C.ar    1  ZINC000880838037    0.1400
      4 C4         -8.9866   -0.0981   55.8515 C.ar    1  ZINC000880838037   -0.2200
      5 C5         -7.8959    0.7506   55.8321 C.ar    1  ZINC000880838037   -0.0700
      6 C6         -7.4908    1.3318   54.6464 C.ar    1  ZINC000880838037   -0.1500
      7 C7         -8.1794    1.0642   53.4698 C.ar    1  ZINC000880838037    0.1800
      8 N8         -7.7690    1.6530   52.2686 N.am    1  ZINC000880838037   -0.6700
      9 C9         -6.7372    1.1279   51.5786 C.2     1  ZINC000880838037    0.5200
     10 O10        -6.1644    0.1449   51.9990 O.2     1  ZINC000880838037   -0.4900
     11 C11        -6.2953    1.7620   50.2851 C.3     1  ZINC000880838037   -0.0600
     12 C12        -4.8524    2.1819   50.3986 C.2     1  ZINC000880838037    0.1000
     13 C13        -4.4661    3.2518   51.0943 C.2     1  ZINC000880838037   -0.2600
     14 S14        -2.7138    3.3829   50.9688 S.3     1  ZINC000880838037    0.1300
     15 C15        -2.6684    1.9821   49.9897 C.2     1  ZINC000880838037    0.0100
     16 S16        -1.2052    1.2695   49.3144 S.3     1  ZINC000880838037    0.1000
     17 C17         0.0208    2.4761   49.8774 C.3     1  ZINC000880838037   -0.1500
     18 H18        -0.4511    3.4534   49.9785 H       1  ZINC000880838037    0.1200
     19 C19         1.1579    2.5618   48.8575 C.3     1  ZINC000880838037   -0.1500
     20 C20         0.5740    2.0451   51.2114 C.2     1  ZINC000880838037    0.5400
     21 N21         0.1172    2.6126   52.3454 N.am    1  ZINC000880838037   -0.8400
     22 O22         1.4300    1.1878   51.2644 O.2     1  ZINC000880838037   -0.5200
     23 N23        -3.8679    1.5167   49.8214 N.2     1  ZINC000880838037   -0.4200
     24 C24        -9.2705    0.2073   53.4862 C.ar    1  ZINC000880838037   -0.1500
     25 C25       -10.0199   -0.0853   52.2118 C.3     1  ZINC000880838037   -0.1000
     26 H26       -10.1037   -2.5794   56.0993 H       1  ZINC000880838037    0.0600
     27 H27       -11.4478   -3.1146   55.0623 H       1  ZINC000880838037    0.1000
     28 H28        -9.7987   -3.0133   54.4002 H       1  ZINC000880838037    0.0600
     29 H29        -9.3015   -0.5505   56.7802 H       1  ZINC000880838037    0.1300
     30 H30        -7.3597    0.9600   56.7458 H       1  ZINC000880838037    0.1300
     31 H31        -6.6384    1.9950   54.6340 H       1  ZINC000880838037    0.1400
     32 H32        -8.2272    2.4392   51.9325 H       1  ZINC000880838037    0.4100
     33 H33        -6.4015    1.0428   49.4729 H       1  ZINC000880838037    0.1200
     34 H34        -6.9129    2.6362   50.0793 H       1  ZINC000880838037    0.1200
     35 H35        -5.1145    3.9217   51.6394 H       1  ZINC000880838037    0.1800
     36 H36         1.6299    1.5844   48.7564 H       1  ZINC000880838037    0.0900
     37 H37         0.7579    2.8735   47.8926 H       1  ZINC000880838037    0.0800
     38 H38         1.8962    3.2884   49.1965 H       1  ZINC000880838037    0.0800
     39 H39         0.4724    2.3344   53.2041 H       1  ZINC000880838037    0.4000
     40 H40        -0.5666    3.2992   52.3028 H       1  ZINC000880838037    0.4100
     41 H41        -9.5776   -0.9524   51.7212 H       1  ZINC000880838037    0.0700
     42 H42       -11.0645   -0.2927   52.4440 H       1  ZINC000880838037    0.0700
     43 H43        -9.9595    0.7775   51.5485 H       1  ZINC000880838037    0.0600
@<TRIPOS>BOND
     1     1     2    1
     2     1    26    1
     3     1    27    1
     4     1    28    1
     5     2     3    1
     6     3    24   ar
     7     3     4   ar
     8     4     5   ar
     9     4    29    1
    10     5     6   ar
    11     5    30    1
    12     6     7   ar
    13     6    31    1
    14     7     8    1
    15     7    24   ar
    16     8     9   am
    17     8    32    1
    18     9    10    2
    19     9    11    1
    20    11    12    1
    21    11    33    1
    22    11    34    1
    23    12    23    1
    24    12    13    2
    25    13    14    1
    26    13    35    1
    27    14    15    1
    28    15    16    1
    29    15    23    2
    30    16    17    1
    31    17    18    1
    32    17    19    1
    33    17    20    1
    34    19    36    1
    35    19    37    1
    36    19    38    1
    37    20    21   am
    38    20    22    2
    39    21    39    1
    40    21    40    1
    41    24    25    1
    42    25    41    1
    43    25    42    1
    44    25    43    1
@<TRIPOS>SUBSTRUCTURE
     1 ZINC000880838037        1 TEMP              0 ****  ****    0 ROOT


##########                                Name:    ZINC000919225759
##########                DOCK_Rotatable_Bonds:                   4
##########                         Heavy_Atoms:                  27
##########                    Molecular_Weight:             375.295
##########                DOCK_Rotatable_Bonds:                   4
##########                       Formal_Charge:                0.04
##########                     HBond_Acceptors:                  11
##########                        HBond_Donors:                   0
##########                         Heavy_Atoms:                  27
##########                          Grid_Score:          -32.271084
##########                     Grid_vdw_energy:          -31.587641
##########                      Grid_es_energy:           -0.683443
##########           Internal_energy_repulsive:           14.541744

@<TRIPOS>MOLECULE
ZINC000919225759
 40 41 1 0 0
SMALL
USER_CHARGES


@<TRIPOS>ATOM
      1 C1         -7.5750    0.6737   50.8323 C.3     1  ZINC000919225759   -0.1500
      2 C2         -7.4790    1.1782   52.2492 C.ar    1  ZINC000919225759    0.0900
      3 C3         -6.6567    2.2655   52.5506 C.ar    1  ZINC000919225759   -0.1200
      4 C4         -5.8780    2.9252   51.4826 C.2     1  ZINC000919225759    0.5200
      5 O5         -6.3430    3.8800   50.8932 O.2     1  ZINC000919225759   -0.4700
      6 O6         -4.6519    2.4678   51.1623 O.3     1  ZINC000919225759   -0.3400
      7 C7         -3.6329    3.4607   50.8724 C.3     1  ZINC000919225759    0.1400
      8 H8         -3.9564    4.0797   50.0355 H       1  ZINC000919225759    0.1100
      9 C9         -3.4145    4.3419   52.1039 C.3     1  ZINC000919225759   -0.1700
     10 C10        -2.3433    2.7676   50.5154 C.ar    1  ZINC000919225759   -0.1000
     11 C11        -1.1568    3.1735   51.0967 C.ar    1  ZINC000919225759   -0.0400
     12 C12         0.0264    2.5377   50.7692 C.ar    1  ZINC000919225759   -0.1100
     13 C13         0.0227    1.4958   49.8611 C.ar    1  ZINC000919225759   -0.0500
     14 C14        -1.1643    1.0891   49.2804 C.ar    1  ZINC000919225759   -0.0400
     15 N15        -1.1682   -0.0263   48.3075 N.pl3   1  ZINC000919225759    0.0300
     16 O16        -0.1258   -0.5860   48.0184 O.2     1  ZINC000919225759   -0.1500
     17 O17        -2.2139   -0.3846   47.7960 O.2     1  ZINC000919225759   -0.1500
     18 C18        -2.3478    1.7220   49.6110 C.ar    1  ZINC000919225759   -0.0400
     19 C19        -6.5740    2.7268   53.8660 C.ar    1  ZINC000919225759    0.0500
     20 C20        -7.3041    2.1064   54.8581 C.ar    1  ZINC000919225759   -0.0600
     21 N21        -7.2182    2.5943   56.2530 N.pl3   1  ZINC000919225759    0.0300
     22 O22        -6.5032    3.5425   56.5235 O.2     1  ZINC000919225759   -0.1300
     23 O23        -7.8622    2.0474   57.1303 O.2     1  ZINC000919225759   -0.1300
     24 C24        -8.1172    1.0292   54.5525 C.ar    1  ZINC000919225759    0.0400
     25 C25        -8.2079    0.5704   53.2505 C.ar    1  ZINC000919225759   -0.0500
     26 N26        -9.0806   -0.5822   52.9328 N.pl3   1  ZINC000919225759    0.0200
     27 O27        -9.1690   -1.5127   53.7137 O.2     1  ZINC000919225759   -0.1300
     28 O28        -9.7104   -0.6001   51.8904 O.2     1  ZINC000919225759   -0.1200
     29 H29        -8.2990    1.2739   50.2813 H       1  ZINC000919225759    0.1200
     30 H30        -6.5993    0.7504   50.3525 H       1  ZINC000919225759    0.1200
     31 H31        -7.8960   -0.3679   50.8386 H       1  ZINC000919225759    0.0900
     32 H32        -3.0910    3.7230   52.9407 H       1  ZINC000919225759    0.0700
     33 H33        -2.6494    5.0873   51.8862 H       1  ZINC000919225759    0.0900
     34 H34        -4.3472    4.8433   52.3621 H       1  ZINC000919225759    0.0700
     35 H35        -1.1539    3.9877   51.8062 H       1  ZINC000919225759    0.1500
     36 H36         0.9536    2.8553   51.2228 H       1  ZINC000919225759    0.1500
     37 H37         0.9471    0.9995   49.6047 H       1  ZINC000919225759    0.1600
     38 H38        -3.2750    1.4043   49.1574 H       1  ZINC000919225759    0.1600
     39 H39        -5.9395    3.5672   54.1061 H       1  ZINC000919225759    0.1900
     40 H40        -8.6866    0.5468   55.3333 H       1  ZINC000919225759    0.1900
@<TRIPOS>BOND
     1     1     2    1
     2     1    29    1
     3     1    30    1
     4     1    31    1
     5     2    25   ar
     6     2     3   ar
     7     3     4    1
     8     3    19   ar
     9     4     5    2
    10     4     6    1
    11     6     7    1
    12     7     8    1
    13     7     9    1
    14     7    10    1
    15     9    32    1
    16     9    33    1
    17     9    34    1
    18    10    18   ar
    19    10    11   ar
    20    11    12   ar
    21    11    35    1
    22    12    13   ar
    23    12    36    1
    24    13    14   ar
    25    13    37    1
    26    14    15    1
    27    14    18   ar
    28    15    16    2
    29    15    17    2
    30    18    38    1
    31    19    20   ar
    32    19    39    1
    33    20    21    1
    34    20    24   ar
    35    21    22    2
    36    21    23    2
    37    24    25   ar
    38    24    40    1
    39    25    26    1
    40    26    27    2
    41    26    28    2
@<TRIPOS>SUBSTRUCTURE
     1 ZINC000919225759        1 TEMP              0 ****  ****    0 ROOT


##########                                Name:    ZINC000479580180
##########                DOCK_Rotatable_Bonds:                   5
##########                         Heavy_Atoms:                  30
##########                    Molecular_Weight:             404.444
##########                DOCK_Rotatable_Bonds:                   5
##########                       Formal_Charge:           0.0299995
##########                     HBond_Acceptors:                   7
##########                        HBond_Donors:                   1
##########                         Heavy_Atoms:                  30
##########                          Grid_Score:          -32.267742
##########                     Grid_vdw_energy:          -32.642059
##########                      Grid_es_energy:            0.374318
##########           Internal_energy_repulsive:           15.193320

@<TRIPOS>MOLECULE
ZINC000479580180
 51 55 1 0 0
SMALL
USER_CHARGES


@<TRIPOS>ATOM
      1 O1         -9.7447   -4.0071   58.9210 O.2     1  ZINC000479580180   -0.5200
      2 C2        -10.3298   -2.9452   58.9548 C.2     1  ZINC000479580180    0.5200
      3 C3        -10.3309   -2.1254   60.2192 C.3     1  ZINC000479580180   -0.0700
      4 C4         -9.3585   -0.9827   60.0780 C.2     1  ZINC000479580180   -0.1600
      5 C5         -8.3491   -0.8892   59.2022 C.2     1  ZINC000479580180    0.0300
      6 O6         -7.6954    0.2740   59.3709 O.3     1  ZINC000479580180   -0.1900
      7 C7         -8.2480    0.9959   60.3662 C.ar    1  ZINC000479580180    0.0800
      8 C8         -7.9578    2.2348   60.9231 C.ar    1  ZINC000479580180   -0.1400
      9 C9         -8.7287    2.7178   61.9620 C.ar    1  ZINC000479580180    0.1300
     10 F10        -8.4446    3.9233   62.5017 F       1  ZINC000479580180   -0.1300
     11 C11        -9.7938    1.9763   62.4572 C.ar    1  ZINC000479580180   -0.1600
     12 C12       -10.0943    0.7543   61.9217 C.ar    1  ZINC000479580180   -0.0400
     13 C13        -9.3310    0.2544   60.8682 C.ar    1  ZINC000479580180   -0.1200
     14 N14       -10.9742   -2.4958   57.8597 N.am    1  ZINC000479580180   -0.6200
     15 C15       -11.6774   -1.2059   57.8816 C.3     1  ZINC000479580180    0.1100
     16 C16       -11.1731   -0.3498   56.7156 C.3     1  ZINC000479580180   -0.1300
     17 C17       -11.3321   -1.1302   55.4087 C.3     1  ZINC000479580180   -0.0100
     18 C18       -10.8686   -0.2779   54.2555 C.2     1  ZINC000479580180    0.3000
     19 N19        -9.6705   -0.2818   53.7339 N.2     1  ZINC000479580180   -0.5300
     20 C20        -9.6117    0.5993   52.7264 C.2     1  ZINC000479580180    0.2700
     21 C21        -8.4180    0.8789   51.8901 C.ar    1  ZINC000479580180   -0.0200
     22 C22        -8.4492    1.9049   50.9480 C.ar    1  ZINC000479580180   -0.0800
     23 C23        -7.3360    2.1609   50.1733 C.ar    1  ZINC000479580180   -0.1300
     24 C24        -6.1911    1.4009   50.3304 C.ar    1  ZINC000479580180   -0.1000
     25 C25        -6.1548    0.3811   51.2643 C.ar    1  ZINC000479580180   -0.1200
     26 C26        -7.2602    0.1202   52.0484 C.ar    1  ZINC000479580180   -0.0800
     27 N27       -10.7873    1.1750   52.6008 N.2     1  ZINC000479580180   -0.3000
     28 N28       -11.6191    0.6131   53.5829 N.pl3   1  ZINC000479580180   -0.4800
     29 C29       -10.4906   -2.4071   55.4696 C.3     1  ZINC000479580180   -0.1400
     30 C30       -10.9821   -3.2837   56.6196 C.3     1  ZINC000479580180    0.1200
     31 H31       -11.3317   -1.7310   60.3957 H       1  ZINC000479580180    0.1100
     32 H32       -10.0343   -2.7531   61.0596 H       1  ZINC000479580180    0.1100
     33 H33        -8.0967   -1.6392   58.4672 H       1  ZINC000479580180    0.2100
     34 H34        -7.1314    2.8183   60.5449 H       1  ZINC000479580180    0.1500
     35 H35       -10.3880    2.3669   63.2700 H       1  ZINC000479580180    0.1400
     36 H36       -10.9230    0.1811   62.3104 H       1  ZINC000479580180    0.1300
     37 H37       -12.7494   -1.3723   57.7759 H       1  ZINC000479580180    0.0800
     38 H38       -11.4758   -0.6958   58.8234 H       1  ZINC000479580180    0.0900
     39 H39       -11.7542    0.5710   56.6625 H       1  ZINC000479580180    0.0900
     40 H40       -10.1214   -0.1084   56.8696 H       1  ZINC000479580180    0.0700
     41 H41       -12.3806   -1.3928   55.2678 H       1  ZINC000479580180    0.1200
     42 H42        -9.3428    2.4985   50.8239 H       1  ZINC000479580180    0.1400
     43 H43        -7.3590    2.9559   49.4426 H       1  ZINC000479580180    0.1300
     44 H44        -5.3225    1.6041   49.7217 H       1  ZINC000479580180    0.1300
     45 H45        -5.2584   -0.2096   51.3827 H       1  ZINC000479580180    0.1300
     46 H46        -7.2307   -0.6762   52.7774 H       1  ZINC000479580180    0.1300
     47 H47       -12.5502    0.8293   53.7478 H       1  ZINC000479580180    0.4400
     48 H48       -10.5859   -2.9506   54.5297 H       1  ZINC000479580180    0.0900
     49 H49        -9.4453   -2.1464   55.6353 H       1  ZINC000479580180    0.0700
     50 H50       -10.3240   -4.1459   56.7288 H       1  ZINC000479580180    0.1000
     51 H51       -11.9981   -3.6206   56.4140 H       1  ZINC000479580180    0.0800
@<TRIPOS>BOND
     1     1     2    2
     2     2     3    1
     3     2    14   am
     4     3     4    1
     5     3    31    1
     6     3    32    1
     7     4    13    1
     8     4     5    2
     9     5     6    1
    10     5    33    1
    11     6     7    1
    12     7    13   ar
    13     7     8   ar
    14     8     9   ar
    15     8    34    1
    16     9    10    1
    17     9    11   ar
    18    11    12   ar
    19    11    35    1
    20    12    13   ar
    21    12    36    1
    22    14    30    1
    23    14    15    1
    24    15    16    1
    25    15    37    1
    26    15    38    1
    27    16    17    1
    28    16    39    1
    29    16    40    1
    30    17    18    1
    31    17    29    1
    32    17    41    1
    33    18    28    1
    34    18    19    2
    35    19    20    1
    36    20    21    1
    37    20    27    2
    38    21    26   ar
    39    21    22   ar
    40    22    23   ar
    41    22    42    1
    42    23    24   ar
    43    23    43    1
    44    24    25   ar
    45    24    44    1
    46    25    26   ar
    47    25    45    1
    48    26    46    1
    49    27    28    1
    50    28    47    1
    51    29    30    1
    52    29    48    1
    53    29    49    1
    54    30    50    1
    55    30    51    1
@<TRIPOS>SUBSTRUCTURE
     1 ZINC000479580180        1 TEMP              0 ****  ****    0 ROOT


##########                                Name:    ZINC000373715094
##########                DOCK_Rotatable_Bonds:                   6
##########                         Heavy_Atoms:                  27
##########                    Molecular_Weight:             362.431
##########                DOCK_Rotatable_Bonds:                   6
##########                       Formal_Charge:           0.0299999
##########                     HBond_Acceptors:                   6
##########                        HBond_Donors:                   2
##########                         Heavy_Atoms:                  27
##########                          Grid_Score:          -32.253948
##########                     Grid_vdw_energy:          -31.322948
##########                      Grid_es_energy:           -0.930999
##########           Internal_energy_repulsive:           17.866127

@<TRIPOS>MOLECULE
ZINC000373715094
 49 52 1 0 0
SMALL
USER_CHARGES


@<TRIPOS>ATOM
      1 C1         -6.9525    0.5386   50.5825 C.3     1  ZINC000373715094    0.0900
      2 N2         -7.8240    0.9093   51.7003 N.am    1  ZINC000373715094   -0.6100
      3 C3         -8.8821    0.1879   52.1087 C.2     1  ZINC000373715094    0.5200
      4 O4         -9.2514   -0.8508   51.6032 O.2     1  ZINC000373715094   -0.5200
      5 C5         -9.5450    0.8600   53.2909 C.3     1  ZINC000373715094   -0.1600
      6 C6         -8.4879    1.8698   53.7948 C.3     1  ZINC000373715094   -0.1000
      7 H7         -8.9600    2.7910   54.1360 H       1  ZINC000373715094    0.1100
      8 C8         -7.6280    1.2560   54.9015 C.3     1  ZINC000373715094    0.1300
      9 N9         -8.4655    0.9714   56.0694 N.am    1  ZINC000373715094   -0.7300
     10 C10        -7.9407    1.0442   57.3087 C.2     1  ZINC000373715094    0.5200
     11 O11        -6.7755    1.3464   57.4570 O.2     1  ZINC000373715094   -0.5200
     12 C12        -8.8017    0.7497   58.5100 C.3     1  ZINC000373715094   -0.0600
     13 C13        -8.7082   -0.7159   58.8478 C.2     1  ZINC000373715094    0.1200
     14 N14        -7.8194   -1.2700   59.6218 N.2     1  ZINC000373715094   -0.2300
     15 N15        -8.0444   -2.6481   59.7024 N.pl3   1  ZINC000373715094   -0.5100
     16 C16        -9.1339   -2.9697   58.9357 C.ar    1  ZINC000373715094    0.1300
     17 C17        -9.7959   -4.1613   58.6517 C.ar    1  ZINC000373715094   -0.1400
     18 C18       -10.8847   -4.1544   57.8263 C.ar    1  ZINC000373715094   -0.0700
     19 C19       -11.3430   -2.9702   57.2628 C.ar    1  ZINC000373715094   -0.1600
     20 C20       -10.7141   -1.7871   57.5233 C.ar    1  ZINC000373715094   -0.0400
     21 C21        -9.6012   -1.7670   58.3708 C.ar    1  ZINC000373715094   -0.1600
     22 C22        -7.6501    2.1129   52.5220 C.3     1  ZINC000373715094    0.1800
     23 H23        -6.6003    2.2493   52.7817 H       1  ZINC000373715094    0.1000
     24 C24        -8.1647    3.3205   51.7817 C.ar    1  ZINC000373715094   -0.1000
     25 C25        -9.4838    3.7083   51.9242 C.ar    1  ZINC000373715094   -0.1000
     26 C26        -9.9557    4.8160   51.2451 C.ar    1  ZINC000373715094   -0.1200
     27 C27        -9.1084    5.5361   50.4238 C.ar    1  ZINC000373715094   -0.1100
     28 C28        -7.7891    5.1488   50.2821 C.ar    1  ZINC000373715094   -0.1200
     29 C29        -7.3160    4.0437   50.9645 C.ar    1  ZINC000373715094   -0.1100
     30 H30        -6.1340   -0.0804   50.9497 H       1  ZINC000373715094    0.0600
     31 H31        -7.5271   -0.0199   49.8435 H       1  ZINC000373715094    0.0800
     32 H32        -6.5482    1.4403   50.1225 H       1  ZINC000373715094    0.0700
     33 H33       -10.4497    1.3800   52.9761 H       1  ZINC000373715094    0.1100
     34 H34        -9.7741    0.1289   54.0661 H       1  ZINC000373715094    0.1100
     35 H35        -7.1796    0.3299   54.5417 H       1  ZINC000373715094    0.0700
     36 H36        -6.8409    1.9563   55.1807 H       1  ZINC000373715094    0.0800
     37 H37        -9.3977    0.7309   55.9507 H       1  ZINC000373715094    0.4000
     38 H38        -8.4565    1.3409   59.3581 H       1  ZINC000373715094    0.1200
     39 H39        -9.8373    1.0057   58.2862 H       1  ZINC000373715094    0.1200
     40 H40        -7.5141   -3.2758   60.2180 H       1  ZINC000373715094    0.4400
     41 H41        -9.4494   -5.0890   59.0828 H       1  ZINC000373715094    0.1300
     42 H42       -11.3950   -5.0811   57.6089 H       1  ZINC000373715094    0.1300
     43 H43       -12.2050   -2.9860   56.6123 H       1  ZINC000373715094    0.1300
     44 H44       -11.0767   -0.8707   57.0813 H       1  ZINC000373715094    0.1300
     45 H45       -10.1457    3.1457   52.5657 H       1  ZINC000373715094    0.1200
     46 H46       -10.9866    5.1185   51.3558 H       1  ZINC000373715094    0.1200
     47 H47        -9.4774    6.4011   49.8927 H       1  ZINC000373715094    0.1200
     48 H48        -7.1273    5.7112   49.6402 H       1  ZINC000373715094    0.1300
     49 H49        -6.2852    3.7411   50.8538 H       1  ZINC000373715094    0.1300
@<TRIPOS>BOND
     1     1     2    1
     2     1    30    1
     3     1    31    1
     4     1    32    1
     5     2    22    1
     6     2     3   am
     7     3     4    2
     8     3     5    1
     9     5     6    1
    10     5    33    1
    11     5    34    1
    12     6     7    1
    13     6     8    1
    14     6    22    1
    15     8     9    1
    16     8    35    1
    17     8    36    1
    18     9    10   am
    19     9    37    1
    20    10    11    2
    21    10    12    1
    22    12    13    1
    23    12    38    1
    24    12    39    1
    25    13    21    1
    26    13    14    2
    27    14    15    1
    28    15    16    1
    29    15    40    1
    30    16    21   ar
    31    16    17   ar
    32    17    18   ar
    33    17    41    1
    34    18    19   ar
    35    18    42    1
    36    19    20   ar
    37    19    43    1
    38    20    21   ar
    39    20    44    1
    40    22    23    1
    41    22    24    1
    42    24    29   ar
    43    24    25   ar
    44    25    26   ar
    45    25    45    1
    46    26    27   ar
    47    26    46    1
    48    27    28   ar
    49    27    47    1
    50    28    29   ar
    51    28    48    1
    52    29    49    1
@<TRIPOS>SUBSTRUCTURE
     1 ZINC000373715094        1 TEMP              0 ****  ****    0 ROOT


##########                                Name:    ZINC000538774026
##########                DOCK_Rotatable_Bonds:                  10
##########                         Heavy_Atoms:                  29
##########                    Molecular_Weight:             414.496
##########                DOCK_Rotatable_Bonds:                  10
##########                       Formal_Charge:            0.049999
##########                     HBond_Acceptors:                   9
##########                        HBond_Donors:                   2
##########                         Heavy_Atoms:                  29
##########                          Grid_Score:          -32.229603
##########                     Grid_vdw_energy:          -30.968788
##########                      Grid_es_energy:           -1.260816
##########           Internal_energy_repulsive:           46.823639

@<TRIPOS>MOLECULE
ZINC000538774026
 61 62 1 0 0
SMALL
USER_CHARGES


@<TRIPOS>ATOM
      1 C1         -9.8423    1.6470   64.0709 C.3     1  ZINC000538774026   -0.1500
      2 C2        -10.2125    0.8994   62.7882 C.3     1  ZINC000538774026   -0.1100
      3 C3        -10.2114    1.8760   61.6104 C.3     1  ZINC000538774026   -0.1400
      4 C4         -9.1907   -0.2101   62.5318 C.3     1  ZINC000538774026    0.1400
      5 N5         -9.5458   -0.9268   61.3043 N.pl3   1  ZINC000538774026   -0.3400
      6 N6        -10.3704   -2.0557   61.2180 N.2     1  ZINC000538774026   -0.2500
      7 C7        -10.4537   -2.4102   59.9612 C.2     1  ZINC000538774026    0.0500
      8 C8         -9.6842   -1.5190   59.1995 C.2     1  ZINC000538774026    0.0800
      9 N9         -9.5132   -1.5562   57.8019 N.am    1  ZINC000538774026   -0.6600
     10 C10       -10.1353   -0.6495   57.0225 C.2     1  ZINC000538774026    0.7100
     11 O11       -10.8428    0.2017   57.5261 O.2     1  ZINC000538774026   -0.5700
     12 N12        -9.9729   -0.6861   55.6851 N.am    1  ZINC000538774026   -0.7300
     13 C13       -10.6505    0.2984   54.8378 C.3     1  ZINC000538774026    0.1600
     14 C14        -9.9544    1.6541   54.9747 C.3     1  ZINC000538774026   -0.1300
     15 C15        -8.4940    1.5240   54.5374 C.3     1  ZINC000538774026   -0.1000
     16 C16        -8.4372    1.0665   53.0786 C.3     1  ZINC000538774026   -0.0800
     17 C17        -6.9987    0.9383   52.6480 C.2     1  ZINC000538774026    0.4700
     18 O18        -6.4700   -0.1479   52.6232 O.2     1  ZINC000538774026   -0.5000
     19 O19        -6.3048    2.0308   52.2919 O.3     1  ZINC000538774026   -0.3500
     20 C20        -6.3262    2.3963   50.8868 C.3     1  ZINC000538774026    0.1200
     21 C21        -6.9900    1.2791   50.0792 C.3     1  ZINC000538774026   -0.1800
     22 C22        -7.1179    3.6935   50.7094 C.3     1  ZINC000538774026   -0.1400
     23 C23        -4.8933    2.6015   50.3914 C.3     1  ZINC000538774026   -0.1800
     24 C24        -9.1332   -0.2891   52.9418 C.3     1  ZINC000538774026   -0.1100
     25 C25       -10.5937   -0.1590   53.3789 C.3     1  ZINC000538774026   -0.1300
     26 C26        -9.1384   -0.6106   60.0475 C.2     1  ZINC000538774026   -0.0500
     27 C27        -8.2369    0.5349   59.6654 C.3     1  ZINC000538774026    0.3500
     28 F28        -7.4741    0.1758   58.5489 F       1  ZINC000538774026   -0.1900
     29 F29        -9.0138    1.6571   59.3580 F       1  ZINC000538774026   -0.1900
     30 H30       -10.5701    2.4375   64.2536 H       1  ZINC000538774026    0.0600
     31 H31        -9.8431    0.9513   64.9099 H       1  ZINC000538774026    0.0600
     32 H32        -8.8499    2.0847   63.9628 H       1  ZINC000538774026    0.0600
     33 H33       -11.2048    0.4617   62.8963 H       1  ZINC000538774026    0.0800
     34 H34        -9.2190    2.3137   61.5023 H       1  ZINC000538774026    0.0600
     35 H35       -10.4749    1.3434   60.6966 H       1  ZINC000538774026    0.0600
     36 H36       -10.9392    2.6665   61.7931 H       1  ZINC000538774026    0.0600
     37 H37        -8.1985    0.2278   62.4227 H       1  ZINC000538774026    0.1000
     38 H38        -9.1908   -0.9053   63.3713 H       1  ZINC000538774026    0.1000
     39 H39       -11.0183   -3.2465   59.5764 H       1  ZINC000538774026    0.2100
     40 H40        -8.9479   -2.2344   57.4003 H       1  ZINC000538774026    0.4100
     41 H41        -9.4076   -1.3643   55.2835 H       1  ZINC000538774026    0.4000
     42 H42       -11.6908    0.3911   55.1492 H       1  ZINC000538774026    0.1000
     43 H43       -10.4585    2.3866   54.3443 H       1  ZINC000538774026    0.0800
     44 H44        -9.9949    1.9800   56.0139 H       1  ZINC000538774026    0.0800
     45 H45        -7.9981    2.4898   54.6350 H       1  ZINC000538774026    0.0700
     46 H46        -7.9899    0.7914   55.1678 H       1  ZINC000538774026    0.0700
     47 H47        -8.9412    1.7990   52.4482 H       1  ZINC000538774026    0.1100
     48 H48        -8.0108    1.1329   50.4323 H       1  ZINC000538774026    0.0600
     49 H49        -7.0061    1.5536   49.0245 H       1  ZINC000538774026    0.0700
     50 H50        -6.4260    0.3550   50.2057 H       1  ZINC000538774026    0.0800
     51 H51        -6.6450    4.4894   51.2847 H       1  ZINC000538774026    0.0700
     52 H52        -7.1340    3.9679   49.6546 H       1  ZINC000538774026    0.0800
     53 H53        -8.1388    3.5473   51.0624 H       1  ZINC000538774026    0.0700
     54 H54        -4.3293    1.6774   50.5178 H       1  ZINC000538774026    0.0800
     55 H55        -4.9093    2.8759   49.3366 H       1  ZINC000538774026    0.0700
     56 H56        -4.4203    3.3975   50.9667 H       1  ZINC000538774026    0.0600
     57 H57        -9.0927   -0.6151   51.9024 H       1  ZINC000538774026    0.0800
     58 H58        -8.6291   -1.0217   53.5722 H       1  ZINC000538774026    0.0600
     59 H59       -11.0894   -1.1248   53.2814 H       1  ZINC000538774026    0.0800
     60 H60       -11.0977    0.5735   52.7485 H       1  ZINC000538774026    0.0900
     61 H61        -7.5740    0.7691   60.4983 H       1  ZINC000538774026    0.1300
@<TRIPOS>BOND
     1     1     2    1
     2     1    30    1
     3     1    31    1
     4     1    32    1
     5     2     3    1
     6     2     4    1
     7     2    33    1
     8     3    34    1
     9     3    35    1
    10     3    36    1
    11     4     5    1
    12     4    37    1
    13     4    38    1
    14     5    26    1
    15     5     6    1
    16     6     7    2
    17     7     8    1
    18     7    39    1
    19     8     9    1
    20     8    26    2
    21     9    10   am
    22     9    40    1
    23    10    11    2
    24    10    12   am
    25    12    13    1
    26    12    41    1
    27    13    25    1
    28    13    14    1
    29    13    42    1
    30    14    15    1
    31    14    43    1
    32    14    44    1
    33    15    16    1
    34    15    45    1
    35    15    46    1
    36    16    17    1
    37    16    24    1
    38    16    47    1
    39    17    18    2
    40    17    19    1
    41    19    20    1
    42    20    21    1
    43    20    22    1
    44    20    23    1
    45    21    48    1
    46    21    49    1
    47    21    50    1
    48    22    51    1
    49    22    52    1
    50    22    53    1
    51    23    54    1
    52    23    55    1
    53    23    56    1
    54    24    25    1
    55    24    57    1
    56    24    58    1
    57    25    59    1
    58    25    60    1
    59    26    27    1
    60    27    28    1
    61    27    29    1
    62    27    61    1
@<TRIPOS>SUBSTRUCTURE
     1 ZINC000538774026        1 TEMP              0 ****  ****    0 ROOT


##########                                Name:    ZINC001408567397
##########                DOCK_Rotatable_Bonds:                   9
##########                         Heavy_Atoms:                  24
##########                    Molecular_Weight:             336.434
##########                DOCK_Rotatable_Bonds:                   9
##########                       Formal_Charge:          -0.0199996
##########                     HBond_Acceptors:                   7
##########                        HBond_Donors:                   2
##########                         Heavy_Atoms:                  24
##########                          Grid_Score:          -32.225632
##########                     Grid_vdw_energy:          -30.570181
##########                      Grid_es_energy:           -1.655450
##########           Internal_energy_repulsive:          118.144592

@<TRIPOS>MOLECULE
ZINC001408567397
 52 53 1 0 0
SMALL
USER_CHARGES


@<TRIPOS>ATOM
      1 C1        -10.3977   -3.8460   58.3034 C.3     1  ZINC001408567397   -0.0800
      2 C2         -9.3962   -2.7932   58.7031 C.2     1  ZINC001408567397    0.0900
      3 N3         -8.3907   -2.9627   59.5228 N.2     1  ZINC001408567397   -0.2900
      4 N4         -7.7027   -1.7470   59.6287 N.pl3   1  ZINC001408567397   -0.4700
      5 C5         -8.3301   -0.8450   58.8454 C.2     1  ZINC001408567397    0.1100
      6 C6         -7.9319    0.5959   58.6549 C.3     1  ZINC001408567397   -0.1000
      7 C7         -9.3777   -1.4676   58.2570 C.2     1  ZINC001408567397   -0.2200
      8 C8        -10.3566   -0.8411   57.2978 C.3     1  ZINC001408567397   -0.0600
      9 C9         -9.8498   -1.0004   55.8875 C.2     1  ZINC001408567397    0.5100
     10 O10       -10.0666   -2.0258   55.2774 O.2     1  ZINC001408567397   -0.5300
     11 N11        -9.1555   -0.0032   55.3043 N.am    1  ZINC001408567397   -0.7300
     12 C12        -8.6643   -0.1573   53.9327 C.3     1  ZINC001408567397    0.1100
     13 C13        -7.4208    0.7119   53.7357 C.3     1  ZINC001408567397    0.1000
     14 N14        -6.9405    0.5722   52.3587 N.am    1  ZINC001408567397   -0.6200
     15 C15        -7.1117   -0.6978   51.6485 C.3     1  ZINC001408567397    0.0700
     16 C16        -6.3411    1.6118   51.7452 C.2     1  ZINC001408567397    0.5100
     17 O17        -5.9450    1.4966   50.6048 O.2     1  ZINC001408567397   -0.5300
     18 C18        -6.1635    2.9175   52.4763 C.3     1  ZINC001408567397   -0.1300
     19 C19        -7.4155    3.7780   52.2951 C.3     1  ZINC001408567397   -0.1100
     20 H20        -7.2870    4.7236   52.8219 H       1  ZINC001408567397    0.0900
     21 C21        -7.6392    4.0489   50.8042 C.3     1  ZINC001408567397   -0.1200
     22 C22        -8.9365    4.8444   50.6300 C.3     1  ZINC001408567397   -0.1600
     23 C23       -10.0933    4.0631   51.2584 C.3     1  ZINC001408567397    0.0600
     24 O24        -9.8076    3.8180   52.6369 O.3     1  ZINC001408567397   -0.3800
     25 C25        -8.6309    3.0386   52.8606 C.3     1  ZINC001408567397    0.0600
     26 H26       -10.0377   -4.3731   57.4199 H       1  ZINC001408567397    0.0800
     27 H27       -10.5263   -4.5544   59.1218 H       1  ZINC001408567397    0.0700
     28 H28       -11.3534   -3.3721   58.0795 H       1  ZINC001408567397    0.0800
     29 H29        -6.9145   -1.5827   60.1698 H       1  ZINC001408567397    0.4400
     30 H30        -7.2368    0.6733   57.8190 H       1  ZINC001408567397    0.0800
     31 H31        -8.8192    1.1936   58.4462 H       1  ZINC001408567397    0.0900
     32 H32        -7.4517    0.9630   59.5620 H       1  ZINC001408567397    0.0700
     33 H33       -11.3246   -1.3329   57.3936 H       1  ZINC001408567397    0.1000
     34 H34       -10.4632    0.2189   57.5280 H       1  ZINC001408567397    0.1000
     35 H35        -8.9810    0.8165   55.7927 H       1  ZINC001408567397    0.4000
     36 H36        -8.4098   -1.2018   53.7530 H       1  ZINC001408567397    0.0700
     37 H37        -9.4395    0.1534   53.2321 H       1  ZINC001408567397    0.0700
     38 H38        -7.6721    1.7547   53.9287 H       1  ZINC001408567397    0.0800
     39 H39        -6.6408    0.3921   54.4266 H       1  ZINC001408567397    0.0900
     40 H40        -8.0660   -0.6938   51.1219 H       1  ZINC001408567397    0.0600
     41 H41        -6.3013   -0.8248   50.9308 H       1  ZINC001408567397    0.0800
     42 H42        -7.0951   -1.5195   52.3644 H       1  ZINC001408567397    0.0800
     43 H43        -6.0076    2.7218   53.5372 H       1  ZINC001408567397    0.1000
     44 H44        -5.2988    3.4449   52.0733 H       1  ZINC001408567397    0.1000
     45 H45        -6.8024    4.6248   50.4088 H       1  ZINC001408567397    0.0700
     46 H46        -7.7172    3.1025   50.2693 H       1  ZINC001408567397    0.0600
     47 H47        -8.8398    5.8116   51.1233 H       1  ZINC001408567397    0.0700
     48 H48        -9.1323    4.9940   49.5682 H       1  ZINC001408567397    0.0700
     49 H49       -11.0118    4.6439   51.1752 H       1  ZINC001408567397    0.0900
     50 H50       -10.2154    3.1131   50.7380 H       1  ZINC001408567397    0.0500
     51 H51        -8.7328    2.0749   52.3615 H       1  ZINC001408567397    0.0400
     52 H52        -8.4970    2.8814   53.9309 H       1  ZINC001408567397    0.1100
@<TRIPOS>BOND
     1     1     2    1
     2     1    26    1
     3     1    27    1
     4     1    28    1
     5     2     7    1
     6     2     3    2
     7     3     4    1
     8     4     5    1
     9     4    29    1
    10     5     6    1
    11     5     7    2
    12     6    30    1
    13     6    31    1
    14     6    32    1
    15     7     8    1
    16     8     9    1
    17     8    33    1
    18     8    34    1
    19     9    10    2
    20     9    11   am
    21    11    12    1
    22    11    35    1
    23    12    13    1
    24    12    36    1
    25    12    37    1
    26    13    14    1
    27    13    38    1
    28    13    39    1
    29    14    15    1
    30    14    16   am
    31    15    40    1
    32    15    41    1
    33    15    42    1
    34    16    17    2
    35    16    18    1
    36    18    19    1
    37    18    43    1
    38    18    44    1
    39    19    20    1
    40    19    25    1
    41    19    21    1
    42    21    22    1
    43    21    45    1
    44    21    46    1
    45    22    23    1
    46    22    47    1
    47    22    48    1
    48    23    24    1
    49    23    49    1
    50    23    50    1
    51    24    25    1
    52    25    51    1
    53    25    52    1
@<TRIPOS>SUBSTRUCTURE
     1 ZINC001408567397        1 TEMP              0 ****  ****    0 ROOT


##########                                Name:    ZINC000188380122
##########                DOCK_Rotatable_Bonds:                   6
##########                         Heavy_Atoms:                  27
##########                    Molecular_Weight:             396.433
##########                DOCK_Rotatable_Bonds:                   6
##########                       Formal_Charge:           0.0299998
##########                     HBond_Acceptors:                   8
##########                        HBond_Donors:                   1
##########                         Heavy_Atoms:                  27
##########                          Grid_Score:          -32.192104
##########                     Grid_vdw_energy:          -32.058342
##########                      Grid_es_energy:           -0.133762
##########           Internal_energy_repulsive:           10.062627

@<TRIPOS>MOLECULE
ZINC000188380122
 46 49 1 0 0
SMALL
USER_CHARGES


@<TRIPOS>ATOM
      1 O1         -8.4248    3.3466   51.1451 O.2     1  ZINC000188380122   -0.5200
      2 C2         -7.5825    2.4740   51.1356 C.2     1  ZINC000188380122    0.5200
      3 C3         -6.7694    2.2251   49.8914 C.3     1  ZINC000188380122   -0.0700
      4 C4         -5.3183    2.5187   50.1726 C.2     1  ZINC000188380122    0.0900
      5 C5         -4.9368    3.5504   50.9331 C.2     1  ZINC000188380122   -0.2400
      6 S6         -3.1764    3.5509   51.0183 S.3     1  ZINC000188380122    0.1000
      7 C7         -3.1312    2.1202   49.9912 C.2     1  ZINC000188380122    0.1100
      8 C8         -1.9063    1.4210   49.5472 C.ar    1  ZINC000188380122   -0.0200
      9 C9         -1.9899    0.3826   48.6189 C.ar    1  ZINC000188380122   -0.0400
     10 C10        -0.8430   -0.2656   48.2082 C.ar    1  ZINC000188380122   -0.1200
     11 C11         0.3876    0.1118   48.7152 C.ar    1  ZINC000188380122   -0.0600
     12 C12         0.4771    1.1407   49.6361 C.ar    1  ZINC000188380122   -0.1800
     13 C13         1.8220    1.5454   50.1827 C.3     1  ZINC000188380122    0.5100
     14 F14         2.8170    1.2368   49.2490 F       1  ZINC000188380122   -0.1700
     15 F15         1.8285    2.9218   50.4335 F       1  ZINC000188380122   -0.1700
     16 F16         2.0688    0.8533   51.3733 F       1  ZINC000188380122   -0.1700
     17 C17        -0.6612    1.8005   50.0505 C.ar    1  ZINC000188380122   -0.0500
     18 N18        -4.3501    1.7741   49.6905 N.2     1  ZINC000188380122   -0.4300
     19 N19        -7.3698    1.7306   52.2395 N.am    1  ZINC000188380122   -0.7200
     20 C20        -8.1602    1.9725   53.4490 C.3     1  ZINC000188380122    0.1300
     21 H21        -8.1434    3.0157   53.7647 H       1  ZINC000188380122    0.1200
     22 C22        -7.8676    0.9785   54.5869 C.3     1  ZINC000188380122   -0.1800
     23 C23        -9.3750    0.9991   54.8662 C.3     1  ZINC000188380122    0.0900
     24 H24        -9.6515    1.8202   55.5277 H       1  ZINC000188380122    0.1200
     25 O25        -9.9257   -0.2189   55.3004 O.3     1  ZINC000188380122   -0.3700
     26 C26        -9.9857   -1.3148   54.4064 C.3     1  ZINC000188380122    0.0700
     27 C27       -10.5546   -0.8852   53.0549 C.3     1  ZINC000188380122   -0.1600
     28 C28        -9.6308    0.1768   52.4506 C.3     1  ZINC000188380122   -0.1100
     29 C29        -9.5771    1.3659   53.3935 C.3     1  ZINC000188380122   -0.1500
     30 H30       -10.3693    2.0935   53.2168 H       1  ZINC000188380122    0.0900
     31 H31        -6.8773    1.1834   49.5891 H       1  ZINC000188380122    0.1100
     32 H32        -7.1229    2.8743   49.0904 H       1  ZINC000188380122    0.1100
     33 H33        -5.5941    4.2609   51.4122 H       1  ZINC000188380122    0.1800
     34 H34        -2.9501    0.0866   48.2229 H       1  ZINC000188380122    0.1500
     35 H35        -0.9062   -1.0693   47.4897 H       1  ZINC000188380122    0.1400
     36 H36         1.2821   -0.3992   48.3911 H       1  ZINC000188380122    0.1500
     37 H37        -0.5899    2.6035   50.7693 H       1  ZINC000188380122    0.1400
     38 H38        -6.6935    1.0353   52.2331 H       1  ZINC000188380122    0.4000
     39 H39        -7.4991    0.0126   54.2411 H       1  ZINC000188380122    0.0900
     40 H40        -7.2666    1.3996   55.3929 H       1  ZINC000188380122    0.0800
     41 H41        -8.9821   -1.7147   54.2618 H       1  ZINC000188380122    0.0500
     42 H42       -10.6217   -2.0905   54.8326 H       1  ZINC000188380122    0.1000
     43 H43       -10.6063   -1.7468   52.3892 H       1  ZINC000188380122    0.0800
     44 H44       -11.5515   -0.4668   53.1938 H       1  ZINC000188380122    0.0800
     45 H45        -8.6302   -0.2372   52.3266 H       1  ZINC000188380122    0.0700
     46 H46       -10.0206    0.4923   51.4829 H       1  ZINC000188380122    0.0800
@<TRIPOS>BOND
     1     1     2    2
     2     2     3    1
     3     2    19   am
     4     3     4    1
     5     3    31    1
     6     3    32    1
     7     4    18    1
     8     4     5    2
     9     5     6    1
    10     5    33    1
    11     6     7    1
    12     7     8    1
    13     7    18    2
    14     8    17   ar
    15     8     9   ar
    16     9    10   ar
    17     9    34    1
    18    10    11   ar
    19    10    35    1
    20    11    12   ar
    21    11    36    1
    22    12    13    1
    23    12    17   ar
    24    13    14    1
    25    13    15    1
    26    13    16    1
    27    17    37    1
    28    19    20    1
    29    19    38    1
    30    20    21    1
    31    20    29    1
    32    20    22    1
    33    22    23    1
    34    22    39    1
    35    22    40    1
    36    23    24    1
    37    23    29    1
    38    23    25    1
    39    25    26    1
    40    26    27    1
    41    26    41    1
    42    26    42    1
    43    27    28    1
    44    27    43    1
    45    27    44    1
    46    28    29    1
    47    28    45    1
    48    28    46    1
    49    29    30    1
@<TRIPOS>SUBSTRUCTURE
     1 ZINC000188380122        1 TEMP              0 ****  ****    0 ROOT


##########                                Name:    ZINC000848949366
##########                DOCK_Rotatable_Bonds:                   8
##########                         Heavy_Atoms:                  25
##########                    Molecular_Weight:             368.773
##########                DOCK_Rotatable_Bonds:                   8
##########                       Formal_Charge:          0.00999947
##########                     HBond_Acceptors:                   9
##########                        HBond_Donors:                   3
##########                         Heavy_Atoms:                  25
##########                          Grid_Score:          -32.179832
##########                     Grid_vdw_energy:          -31.072718
##########                      Grid_es_energy:           -1.107114
##########           Internal_energy_repulsive:            9.420328

@<TRIPOS>MOLECULE
ZINC000848949366
 42 43 1 0 0
SMALL
USER_CHARGES


@<TRIPOS>ATOM
      1 C1         -6.9492    3.2871   57.0930 C.3     1  ZINC000848949366   -0.1500
      2 C2         -6.9090    2.0665   58.0148 C.3     1  ZINC000848949366    0.0600
      3 O3         -7.7189    1.0264   57.4633 O.3     1  ZINC000848949366   -0.3500
      4 C4         -8.7606    0.6009   58.2083 C.2     1  ZINC000848949366    0.5400
      5 O5         -9.5322    1.4078   58.6923 O.2     1  ZINC000848949366   -0.4800
      6 C6         -8.9555   -0.7830   58.4266 C.2     1  ZINC000848949366   -0.2300
      7 C7         -9.6814   -1.5299   57.5670 C.2     1  ZINC000848949366    0.2000
      8 C8        -10.2944   -0.8786   56.3541 C.3     1  ZINC000848949366    0.1000
      9 O9         -9.3563   -0.9366   55.2474 O.3     1  ZINC000848949366   -0.3500
     10 C10        -9.6657   -0.2257   54.1452 C.2     1  ZINC000848949366    0.5100
     11 O11       -10.8253    0.0446   53.9022 O.2     1  ZINC000848949366   -0.4800
     12 C12        -8.5980    0.2240   53.2349 C.ar    1  ZINC000848949366   -0.1600
     13 C13        -7.5070    0.9424   53.7319 C.ar    1  ZINC000848949366   -0.0300
     14 C14        -6.5121    1.3602   52.8758 C.ar    1  ZINC000848949366   -0.1300
     15 C15        -6.5876    1.0715   51.5216 C.ar    1  ZINC000848949366    0.0200
     16 Cl16       -5.3268    1.6045   50.4539 Cl      1  ZINC000848949366   -0.0500
     17 C17        -7.6610    0.3612   51.0171 C.ar    1  ZINC000848949366   -0.1500
     18 C18        -8.6680   -0.0716   51.8654 C.ar    1  ZINC000848949366    0.1900
     19 O19        -9.7218   -0.7685   51.3719 O.3     1  ZINC000848949366   -0.4700
     20 N20        -9.8685   -2.8660   57.7787 N.am    1  ZINC000848949366   -0.6400
     21 C21        -9.3633   -3.5297   58.8261 C.2     1  ZINC000848949366    0.7100
     22 O22        -9.5842   -4.7206   58.9296 O.2     1  ZINC000848949366   -0.5600
     23 N23        -8.6177   -2.9206   59.7692 N.am    1  ZINC000848949366   -0.7100
     24 C24        -8.3519   -1.4790   59.6296 C.3     1  ZINC000848949366    0.2000
     25 H25        -7.2715   -1.3378   59.6011 H       1  ZINC000848949366    0.0900
     26 C26        -8.8820   -0.7781   60.8820 C.3     1  ZINC000848949366   -0.1700
     27 H27        -6.3313    4.0805   57.5136 H       1  ZINC000848949366    0.0800
     28 H28        -6.5680    3.0124   56.1095 H       1  ZINC000848949366    0.0700
     29 H29        -7.9770    3.6379   56.9994 H       1  ZINC000848949366    0.0700
     30 H30        -5.8812    1.7157   58.1083 H       1  ZINC000848949366    0.0700
     31 H31        -7.2902    2.3412   58.9983 H       1  ZINC000848949366    0.0700
     32 H32       -11.2096   -1.4048   56.0826 H       1  ZINC000848949366    0.1100
     33 H33       -10.5270    0.1622   56.5792 H       1  ZINC000848949366    0.1000
     34 H34        -7.4445    1.1701   54.7858 H       1  ZINC000848949366    0.1500
     35 H35        -5.6696    1.9153   53.2611 H       1  ZINC000848949366    0.1500
     36 H36        -7.7131    0.1401   49.9612 H       1  ZINC000848949366    0.1500
     37 H37        -9.7231   -0.8497   50.4082 H       1  ZINC000848949366    0.4000
     38 H38       -10.3971   -3.3619   57.1342 H       1  ZINC000848949366    0.4300
     39 H39        -8.2618   -3.4207   60.5203 H       1  ZINC000848949366    0.4400
     40 H40        -8.3728   -1.1717   61.7617 H       1  ZINC000848949366    0.0700
     41 H41        -8.6975    0.2934   60.8043 H       1  ZINC000848949366    0.0700
     42 H42        -9.9536   -0.9566   60.9722 H       1  ZINC000848949366    0.0700
@<TRIPOS>BOND
     1     1     2    1
     2     1    27    1
     3     1    28    1
     4     1    29    1
     5     2     3    1
     6     2    30    1
     7     2    31    1
     8     3     4    1
     9     4     5    2
    10     4     6    1
    11     6    24    1
    12     6     7    2
    13     7     8    1
    14     7    20    1
    15     8     9    1
    16     8    32    1
    17     8    33    1
    18     9    10    1
    19    10    11    2
    20    10    12    1
    21    12    18   ar
    22    12    13   ar
    23    13    14   ar
    24    13    34    1
    25    14    15   ar
    26    14    35    1
    27    15    16    1
    28    15    17   ar
    29    17    18   ar
    30    17    36    1
    31    18    19    1
    32    19    37    1
    33    20    21   am
    34    20    38    1
    35    21    22    2
    36    21    23   am
    37    23    24    1
    38    23    39    1
    39    24    25    1
    40    24    26    1
    41    26    40    1
    42    26    41    1
    43    26    42    1
@<TRIPOS>SUBSTRUCTURE
     1 ZINC000848949366        1 TEMP              0 ****  ****    0 ROOT


##########                                Name:    ZINC000489403631
##########                DOCK_Rotatable_Bonds:                   7
##########                         Heavy_Atoms:                  28
##########                    Molecular_Weight:             381.391
##########                DOCK_Rotatable_Bonds:                   7
##########                       Formal_Charge:          -0.0300003
##########                     HBond_Acceptors:                   9
##########                        HBond_Donors:                   1
##########                         Heavy_Atoms:                  28
##########                          Grid_Score:          -32.176125
##########                     Grid_vdw_energy:          -32.626690
##########                      Grid_es_energy:            0.450567
##########           Internal_energy_repulsive:            9.382564

@<TRIPOS>MOLECULE
ZINC000489403631
 47 49 1 0 0
SMALL
USER_CHARGES


@<TRIPOS>ATOM
      1 C1         -8.3346    0.9882   57.4976 C.3     1  ZINC000489403631   -0.1100
      2 C2         -8.6667    0.5796   56.0856 C.ar    1  ZINC000489403631   -0.0800
      3 C3         -8.3588    1.4189   55.0336 C.ar    1  ZINC000489403631   -0.0900
      4 C4         -8.6650    1.0422   53.7325 C.ar    1  ZINC000489403631    0.1200
      5 N5         -8.3524    1.8933   52.6646 N.am    1  ZINC000489403631   -0.6600
      6 C6         -7.1046    1.9052   52.1553 C.2     1  ZINC000489403631    0.5100
      7 O7         -6.2523    1.1790   52.6216 O.2     1  ZINC000489403631   -0.4600
      8 C8         -6.7683    2.8209   51.0065 C.3     1  ZINC000489403631    0.1700
      9 C9         -7.5035    2.3525   49.7491 C.3     1  ZINC000489403631   -0.1700
     10 C10        -7.2009    4.2480   51.3484 C.3     1  ZINC000489403631   -0.1700
     11 N11        -5.3234    2.7928   50.7665 N.pl3   1  ZINC000489403631   -0.3400
     12 C12        -4.6420    1.8124   50.1377 C.2     1  ZINC000489403631    0.1500
     13 C13        -3.3352    2.1634   50.1213 C.2     1  ZINC000489403631   -0.1900
     14 N14        -2.2298    1.3772   49.5291 N.pl3   1  ZINC000489403631    0.0700
     15 O15        -1.1263    1.8771   49.4029 O.2     1  ZINC000489403631   -0.1700
     16 O16        -2.4237    0.2302   49.1679 O.2     1  ZINC000489403631   -0.1600
     17 C17        -3.2139    3.4007   50.7622 C.2     1  ZINC000489403631    0.1000
     18 N18        -4.4059    3.7817   51.1440 N.2     1  ZINC000489403631   -0.2200
     19 C19        -9.2806   -0.1784   53.4904 C.ar    1  ZINC000489403631   -0.1100
     20 C20        -9.5882   -1.0172   54.5436 C.ar    1  ZINC000489403631   -0.1700
     21 C21        -9.2769   -0.6428   55.8425 C.ar    1  ZINC000489403631    0.1000
     22 O22        -9.5799   -1.4690   56.8790 O.3     1  ZINC000489403631   -0.2500
     23 C23       -10.8770   -1.8312   57.0467 C.ar    1  ZINC000489403631    0.1400
     24 C24       -11.2727   -3.1587   56.8994 C.ar    1  ZINC000489403631   -0.2000
     25 C25       -12.6009   -3.4865   57.0782 C.ar    1  ZINC000489403631    0.1200
     26 N26       -13.4905   -2.5612   57.3848 N.ar    1  ZINC000489403631   -0.4900
     27 C27       -13.1546   -1.2936   57.5329 C.ar    1  ZINC000489403631    0.1200
     28 C28       -11.8457   -0.8861   57.3764 C.ar    1  ZINC000489403631   -0.1800
     29 H29        -7.3315    0.6438   57.7491 H       1  ZINC000489403631    0.0700
     30 H30        -8.3774    2.0742   57.5811 H       1  ZINC000489403631    0.0700
     31 H31        -9.0546    0.5424   58.1838 H       1  ZINC000489403631    0.0700
     32 H32        -7.8803    2.3685   55.2226 H       1  ZINC000489403631    0.1500
     33 H33        -9.0340    2.4741   52.2918 H       1  ZINC000489403631    0.4100
     34 H34        -8.5786    2.3734   49.9277 H       1  ZINC000489403631    0.1000
     35 H35        -7.2603    3.0148   48.9182 H       1  ZINC000489403631    0.0900
     36 H36        -7.1953    1.3358   49.5055 H       1  ZINC000489403631    0.0800
     37 H37        -6.6773    4.5817   52.2443 H       1  ZINC000489403631    0.0800
     38 H38        -6.9577    4.9103   50.5176 H       1  ZINC000489403631    0.0900
     39 H39        -8.2760    4.2689   51.5270 H       1  ZINC000489403631    0.0900
     40 H40        -5.0640    0.9092   49.7222 H       1  ZINC000489403631    0.2000
     41 H41        -2.2957    3.9491   50.9116 H       1  ZINC000489403631    0.2100
     42 H42        -9.5193   -0.4718   52.4788 H       1  ZINC000489403631    0.1300
     43 H43       -10.0670   -1.9668   54.3554 H       1  ZINC000489403631    0.1300
     44 H44       -10.5498   -3.9207   56.6483 H       1  ZINC000489403631    0.1400
     45 H45       -12.9166   -4.5132   56.9656 H       1  ZINC000489403631    0.1600
     46 H46       -13.9130   -0.5667   57.7837 H       1  ZINC000489403631    0.1700
     47 H47       -11.5774    0.1528   57.4993 H       1  ZINC000489403631    0.1500
@<TRIPOS>BOND
     1     1     2    1
     2     1    29    1
     3     1    30    1
     4     1    31    1
     5     2    21   ar
     6     2     3   ar
     7     3     4   ar
     8     3    32    1
     9     4     5    1
    10     4    19   ar
    11     5     6   am
    12     5    33    1
    13     6     7    2
    14     6     8    1
    15     8     9    1
    16     8    10    1
    17     8    11    1
    18     9    34    1
    19     9    35    1
    20     9    36    1
    21    10    37    1
    22    10    38    1
    23    10    39    1
    24    11    18    1
    25    11    12    1
    26    12    13    2
    27    12    40    1
    28    13    14    1
    29    13    17    1
    30    14    15    2
    31    14    16    2
    32    17    18    2
    33    17    41    1
    34    19    20   ar
    35    19    42    1
    36    20    21   ar
    37    20    43    1
    38    21    22    1
    39    22    23    1
    40    23    28   ar
    41    23    24   ar
    42    24    25   ar
    43    24    44    1
    44    25    26   ar
    45    25    45    1
    46    26    27   ar
    47    27    28   ar
    48    27    46    1
    49    28    47    1
@<TRIPOS>SUBSTRUCTURE
     1 ZINC000489403631        1 TEMP              0 ****  ****    0 ROOT


##########                                Name:    ZINC001341052241
##########                DOCK_Rotatable_Bonds:                   7
##########                         Heavy_Atoms:                  24
##########                    Molecular_Weight:             336.478
##########                DOCK_Rotatable_Bonds:                   7
##########                       Formal_Charge:         5.96046e-08
##########                     HBond_Acceptors:                   6
##########                        HBond_Donors:                   0
##########                         Heavy_Atoms:                  24
##########                          Grid_Score:          -32.174809
##########                     Grid_vdw_energy:          -31.674339
##########                      Grid_es_energy:           -0.500468
##########           Internal_energy_repulsive:           11.006967

@<TRIPOS>MOLECULE
ZINC001341052241
 56 58 1 0 0
SMALL
USER_CHARGES


@<TRIPOS>ATOM
      1 C1         -9.0677    1.5080   56.1720 C.3     1  ZINC001341052241   -0.1700
      2 C2         -8.6477    0.0703   55.8598 C.3     1  ZINC001341052241    0.1100
      3 N3         -9.4862   -0.4601   54.7819 N.pl3   1  ZINC001341052241   -0.4500
      4 C4        -10.5880   -1.2597   54.9105 C.2     1  ZINC001341052241    0.1800
      5 C5        -11.1776   -1.7672   56.2011 C.3     1  ZINC001341052241    0.1500
      6 O6        -12.5699   -2.0314   56.0173 O.3     1  ZINC001341052241   -0.3700
      7 C7        -13.2283   -2.5199   57.1878 C.3     1  ZINC001341052241    0.0900
      8 C8        -14.7057   -2.7666   56.8764 C.3     1  ZINC001341052241   -0.1400
      9 C9        -15.4106   -3.2897   58.1295 C.3     1  ZINC001341052241   -0.1200
     10 C10       -15.2915   -2.2555   59.2508 C.3     1  ZINC001341052241   -0.1200
     11 C11       -13.8141   -2.0088   59.5622 C.3     1  ZINC001341052241   -0.1200
     12 C12       -13.1092   -1.4857   58.3090 C.3     1  ZINC001341052241   -0.1200
     13 N13       -11.0340   -1.5008   53.7102 N.2     1  ZINC001341052241   -0.2600
     14 N14       -10.2981   -0.9079   52.8391 N.2     1  ZINC001341052241   -0.3100
     15 C15        -9.3294   -0.2591   53.4414 C.2     1  ZINC001341052241    0.3500
     16 N16        -8.3380    0.4929   52.8317 N.3     1  ZINC001341052241   -0.4600
     17 C17        -7.4059   -0.3667   52.0910 C.3     1  ZINC001341052241    0.0700
     18 C18        -6.2477    0.4776   51.5544 C.3     1  ZINC001341052241   -0.1100
     19 C19        -6.8020    1.5709   50.6368 C.3     1  ZINC001341052241   -0.0900
     20 C20        -5.6548    2.4561   50.1455 C.3     1  ZINC001341052241    0.0700
     21 O21        -4.8301    2.8253   51.2527 O.3     1  ZINC001341052241   -0.3900
     22 C22        -3.7409    3.6827   50.9058 C.3     1  ZINC001341052241    0.0300
     23 C23        -7.8062    2.4221   51.4189 C.3     1  ZINC001341052241   -0.1100
     24 C24        -8.9192    1.5214   51.9593 C.3     1  ZINC001341052241    0.0700
     25 H25        -8.9560    2.1215   55.2780 H       1  ZINC001341052241    0.0600
     26 H26       -10.1090    1.5207   56.4937 H       1  ZINC001341052241    0.0700
     27 H27        -8.4370    1.9062   56.9671 H       1  ZINC001341052241    0.0800
     28 H28        -8.7692   -0.5453   56.7511 H       1  ZINC001341052241    0.0900
     29 H29        -7.6033    0.0564   55.5481 H       1  ZINC001341052241    0.1000
     30 H30       -10.6696   -2.6852   56.4965 H       1  ZINC001341052241    0.0900
     31 H31       -11.0502   -1.0148   56.9794 H       1  ZINC001341052241    0.0700
     32 H32       -12.7626   -3.4535   57.5037 H       1  ZINC001341052241    0.0600
     33 H33       -15.1714   -1.8331   56.5605 H       1  ZINC001341052241    0.0700
     34 H34       -14.7906   -3.5034   56.0776 H       1  ZINC001341052241    0.0700
     35 H35       -14.9451   -4.2233   58.4454 H       1  ZINC001341052241    0.0600
     36 H36       -16.4633   -3.4654   57.9077 H       1  ZINC001341052241    0.0700
     37 H37       -15.7938   -2.6281   60.1436 H       1  ZINC001341052241    0.0600
     38 H38       -15.7571   -1.3219   58.9349 H       1  ZINC001341052241    0.0600
     39 H39       -13.3485   -2.9423   59.8781 H       1  ZINC001341052241    0.0600
     40 H40       -13.7293   -1.2719   60.3610 H       1  ZINC001341052241    0.0700
     41 H41       -12.0565   -1.3099   58.5309 H       1  ZINC001341052241    0.0700
     42 H42       -13.5748   -0.5521   57.9932 H       1  ZINC001341052241    0.0700
     43 H43        -7.9289   -0.8367   51.2581 H       1  ZINC001341052241    0.0600
     44 H44        -7.0159   -1.1372   52.7560 H       1  ZINC001341052241    0.0800
     45 H45        -5.5643   -0.1580   50.9916 H       1  ZINC001341052241    0.0800
     46 H46        -5.7157    0.9369   52.3876 H       1  ZINC001341052241    0.0800
     47 H47        -7.2994    1.1119   49.7825 H       1  ZINC001341052241    0.0800
     48 H48        -6.0621    3.3540   49.6808 H       1  ZINC001341052241    0.0500
     49 H49        -5.0592    1.9075   49.4159 H       1  ZINC001341052241    0.0500
     50 H50        -3.1002    3.1810   50.1807 H       1  ZINC001341052241    0.0400
     51 H51        -3.1636    3.9167   51.8003 H       1  ZINC001341052241    0.0900
     52 H52        -4.1283    4.6046   50.4719 H       1  ZINC001341052241    0.0400
     53 H53        -7.2987    2.9120   52.2499 H       1  ZINC001341052241    0.0700
     54 H54        -8.2361    3.1757   50.7590 H       1  ZINC001341052241    0.0800
     55 H55        -9.4351    1.0425   51.1271 H       1  ZINC001341052241    0.0600
     56 H56        -9.6283    2.1222   52.5287 H       1  ZINC001341052241    0.0800
@<TRIPOS>BOND
     1     1     2    1
     2     1    25    1
     3     1    26    1
     4     1    27    1
     5     2     3    1
     6     2    28    1
     7     2    29    1
     8     3    15    1
     9     3     4    1
    10     4     5    1
    11     4    13    2
    12     5     6    1
    13     5    30    1
    14     5    31    1
    15     6     7    1
    16     7    12    1
    17     7     8    1
    18     7    32    1
    19     8     9    1
    20     8    33    1
    21     8    34    1
    22     9    10    1
    23     9    35    1
    24     9    36    1
    25    10    11    1
    26    10    37    1
    27    10    38    1
    28    11    12    1
    29    11    39    1
    30    11    40    1
    31    12    41    1
    32    12    42    1
    33    13    14    1
    34    14    15    2
    35    15    16    1
    36    16    24    1
    37    16    17    1
    38    17    18    1
    39    17    43    1
    40    17    44    1
    41    18    19    1
    42    18    45    1
    43    18    46    1
    44    19    20    1
    45    19    23    1
    46    19    47    1
    47    20    21    1
    48    20    48    1
    49    20    49    1
    50    21    22    1
    51    22    50    1
    52    22    51    1
    53    22    52    1
    54    23    24    1
    55    23    53    1
    56    23    54    1
    57    24    55    1
    58    24    56    1
@<TRIPOS>SUBSTRUCTURE
     1 ZINC001341052241        1 TEMP              0 ****  ****    0 ROOT


##########                                Name:    ZINC000787750060
##########                DOCK_Rotatable_Bonds:                   6
##########                         Heavy_Atoms:                  24
##########                    Molecular_Weight:             347.438
##########                DOCK_Rotatable_Bonds:                   6
##########                       Formal_Charge:           0.0200003
##########                     HBond_Acceptors:                   7
##########                        HBond_Donors:                   2
##########                         Heavy_Atoms:                  24
##########                          Grid_Score:          -32.164051
##########                     Grid_vdw_energy:          -32.217415
##########                      Grid_es_energy:            0.053364
##########           Internal_energy_repulsive:            5.674531

@<TRIPOS>MOLECULE
ZINC000787750060
 45 47 1 0 0
SMALL
USER_CHARGES


@<TRIPOS>ATOM
      1 C1          0.6630    3.3784   50.9210 C.3     1  ZINC000787750060   -0.1200
      2 C2         -0.7765    2.9957   50.6917 C.ar    1  ZINC000787750060   -0.0400
      3 C3         -1.7792    3.6258   51.4100 C.ar    1  ZINC000787750060   -0.1300
      4 C4         -3.0991    3.2837   51.2085 C.ar    1  ZINC000787750060   -0.0700
      5 C5         -3.4283    2.2977   50.2757 C.ar    1  ZINC000787750060   -0.1700
      6 C6         -4.8391    1.9269   50.0545 C.2     1  ZINC000787750060    0.5600
      7 O7         -5.4201    2.3121   49.0583 O.2     1  ZINC000787750060   -0.5200
      8 N8         -5.4839    1.1610   50.9569 N.am    1  ZINC000787750060   -0.7300
      9 C9         -6.8853    0.7943   50.7382 C.3     1  ZINC000787750060    0.2100
     10 C10        -7.5467    0.5237   52.0650 C.2     1  ZINC000787750060   -0.2800
     11 C11        -7.0527    0.8347   53.2637 C.2     1  ZINC000787750060    0.0900
     12 N12        -7.8233    0.4932   54.2812 N.2     1  ZINC000787750060   -0.5200
     13 C13        -8.9451   -0.0918   53.9962 C.2     1  ZINC000787750060    0.2300
     14 N14        -9.8772   -0.5189   54.9289 N.3     1  ZINC000787750060   -0.4500
     15 C15       -10.4861   -1.7929   54.5200 C.3     1  ZINC000787750060    0.0200
     16 C16       -11.4626   -2.2569   55.6040 C.3     1  ZINC000787750060    0.0600
     17 O17       -12.4398   -1.2366   55.8267 O.3     1  ZINC000787750060   -0.3800
     18 C18       -11.8815    0.0177   56.2270 C.3     1  ZINC000787750060    0.0600
     19 C19       -10.9092    0.5047   55.1492 C.3     1  ZINC000787750060    0.0300
     20 S20        -9.1107   -0.2516   52.3021 S.3     1  ZINC000787750060    0.1700
     21 C21        -2.4105    1.6626   49.5504 C.ar    1  ZINC000787750060    0.1700
     22 O22        -2.7181    0.7034   48.6418 O.3     1  ZINC000787750060   -0.4700
     23 C23        -1.0885    2.0227   49.7626 C.ar    1  ZINC000787750060   -0.1200
     24 C24         0.0103    1.3438   48.9862 C.3     1  ZINC000787750060   -0.1200
     25 H25         0.9346    4.1911   50.2472 H       1  ZINC000787750060    0.0800
     26 H26         0.7924    3.7037   51.9532 H       1  ZINC000787750060    0.0700
     27 H27         1.3030    2.5174   50.7283 H       1  ZINC000787750060    0.0800
     28 H28        -1.5257    4.3884   52.1315 H       1  ZINC000787750060    0.1300
     29 H29        -3.8776    3.7772   51.7712 H       1  ZINC000787750060    0.1300
     30 H30        -5.0202    0.8527   51.7511 H       1  ZINC000787750060    0.4000
     31 H31        -7.4008    1.6126   50.2354 H       1  ZINC000787750060    0.0900
     32 H32        -6.9342   -0.1011   50.1186 H       1  ZINC000787750060    0.0800
     33 H33        -6.0996    1.3260   53.3927 H       1  ZINC000787750060    0.1800
     34 H34       -11.0229   -1.6551   53.5814 H       1  ZINC000787750060    0.0600
     35 H35        -9.7065   -2.5429   54.3873 H       1  ZINC000787750060    0.1000
     36 H36       -11.9588   -3.1716   55.2796 H       1  ZINC000787750060    0.1100
     37 H37       -10.9170   -2.4463   56.5284 H       1  ZINC000787750060    0.0700
     38 H38       -12.6807    0.7481   56.3531 H       1  ZINC000787750060    0.1100
     39 H39       -11.3481   -0.1055   57.1696 H       1  ZINC000787750060    0.0600
     40 H40       -10.4384    1.4319   55.4760 H       1  ZINC000787750060    0.1000
     41 H41       -11.4528    0.6793   54.2207 H       1  ZINC000787750060    0.0700
     42 H42        -3.6625    0.5023   48.5865 H       1  ZINC000787750060    0.4000
     43 H43         0.1982    1.8952   48.0648 H       1  ZINC000787750060    0.0700
     44 H44         0.9191    1.3205   49.5875 H       1  ZINC000787750060    0.0700
     45 H45        -0.2917    0.3248   48.7446 H       1  ZINC000787750060    0.0800
@<TRIPOS>BOND
     1     1     2    1
     2     1    25    1
     3     1    26    1
     4     1    27    1
     5     2    23   ar
     6     2     3   ar
     7     3     4   ar
     8     3    28    1
     9     4     5   ar
    10     4    29    1
    11     5     6    1
    12     5    21   ar
    13     6     7    2
    14     6     8   am
    15     8     9    1
    16     8    30    1
    17     9    10    1
    18     9    31    1
    19     9    32    1
    20    10    20    1
    21    10    11    2
    22    11    12    1
    23    11    33    1
    24    12    13    2
    25    13    14    1
    26    13    20    1
    27    14    19    1
    28    14    15    1
    29    15    16    1
    30    15    34    1
    31    15    35    1
    32    16    17    1
    33    16    36    1
    34    16    37    1
    35    17    18    1
    36    18    19    1
    37    18    38    1
    38    18    39    1
    39    19    40    1
    40    19    41    1
    41    21    22    1
    42    21    23   ar
    43    22    42    1
    44    23    24    1
    45    24    43    1
    46    24    44    1
    47    24    45    1
@<TRIPOS>SUBSTRUCTURE
     1 ZINC000787750060        1 TEMP              0 ****  ****    0 ROOT


##########                                Name:    ZINC000892249927
##########                DOCK_Rotatable_Bonds:                   8
##########                         Heavy_Atoms:                  27
##########                    Molecular_Weight:             364.487
##########                DOCK_Rotatable_Bonds:                   8
##########                       Formal_Charge:          -0.0300015
##########                     HBond_Acceptors:                   4
##########                        HBond_Donors:                   1
##########                         Heavy_Atoms:                  27
##########                          Grid_Score:          -32.144901
##########                     Grid_vdw_energy:          -32.276173
##########                      Grid_es_energy:            0.131270
##########           Internal_energy_repulsive:            8.321850

@<TRIPOS>MOLECULE
ZINC000892249927
 55 58 1 0 0
SMALL
USER_CHARGES


@<TRIPOS>ATOM
      1 O1         -3.6445    2.4006   50.5673 O.2     1  ZINC000892249927   -0.5300
      2 C2         -4.2854    2.9275   51.4520 C.2     1  ZINC000892249927    0.5100
      3 C3         -3.7344    4.1357   52.1646 C.3     1  ZINC000892249927   -0.1400
      4 C4         -2.8146    3.6826   53.3002 C.3     1  ZINC000892249927   -0.1000
      5 C5         -2.4208    4.8919   54.1508 C.3     1  ZINC000892249927   -0.0800
      6 C6         -1.7832    4.4187   55.4317 C.ar    1  ZINC000892249927   -0.0900
      7 C7         -0.4063    4.3525   55.5351 C.ar    1  ZINC000892249927   -0.1100
      8 C8          0.1785    3.9185   56.7101 C.ar    1  ZINC000892249927   -0.1100
      9 C9         -0.6135    3.5512   57.7819 C.ar    1  ZINC000892249927   -0.0500
     10 C10         0.0241    3.0777   59.0626 C.3     1  ZINC000892249927   -0.1200
     11 C11        -0.7014    1.9855   59.8511 C.3     1  ZINC000892249927   -0.1800
     12 C12         0.5832    1.6538   59.0889 C.3     1  ZINC000892249927   -0.1700
     13 C13        -1.9904    3.6189   57.6789 C.ar    1  ZINC000892249927   -0.1200
     14 C14        -2.5751    4.0565   56.5053 C.ar    1  ZINC000892249927   -0.1100
     15 N15        -5.4928    2.4360   51.7941 N.am    1  ZINC000892249927   -0.7300
     16 C16        -6.0285    1.2616   51.1014 C.3     1  ZINC000892249927    0.1400
     17 H17        -5.2123    0.7087   50.6362 H       1  ZINC000892249927    0.1000
     18 C18        -7.0221    1.7101   50.0254 C.3     1  ZINC000892249927   -0.1700
     19 C19        -8.2025    2.4183   50.6955 C.3     1  ZINC000892249927    0.0600
     20 O20        -8.8123    1.5358   51.6396 O.3     1  ZINC000892249927   -0.3700
     21 C21        -7.9437    1.1207   52.6957 C.3     1  ZINC000892249927    0.1400
     22 H22        -7.5843    1.9964   53.2361 H       1  ZINC000892249927    0.0700
     23 C23        -8.6967    0.2206   53.6412 C.ar    1  ZINC000892249927   -0.1400
     24 C24        -9.5458   -0.7592   53.1510 C.ar    1  ZINC000892249927   -0.0700
     25 C25       -10.2178   -1.5646   54.0581 C.ar    1  ZINC000892249927   -0.1700
     26 C26       -10.0199   -1.3651   55.4110 C.ar    1  ZINC000892249927    0.1000
     27 N27        -9.2039   -0.4227   55.8418 N.ar    1  ZINC000892249927   -0.4900
     28 C28        -8.5448    0.3578   55.0083 C.ar    1  ZINC000892249927    0.1300
     29 C29        -6.7510    0.3592   52.1064 C.3     1  ZINC000892249927   -0.1500
     30 H30        -3.1687    4.7462   51.4606 H       1  ZINC000892249927    0.0900
     31 H31        -4.5565    4.7220   52.5749 H       1  ZINC000892249927    0.0900
     32 H32        -3.3364    2.9552   53.9221 H       1  ZINC000892249927    0.0700
     33 H33        -1.9181    3.2256   52.8813 H       1  ZINC000892249927    0.0700
     34 H34        -1.7122    5.5092   53.5987 H       1  ZINC000892249927    0.0700
     35 H35        -3.3100    5.4781   54.3826 H       1  ZINC000892249927    0.0700
     36 H36         0.2125    4.6394   54.6978 H       1  ZINC000892249927    0.1200
     37 H37         1.2543    3.8661   56.7906 H       1  ZINC000892249927    0.1200
     38 H38         0.5583    3.8388   59.6312 H       1  ZINC000892249927    0.1100
     39 H39        -0.6446    2.0280   60.9388 H       1  ZINC000892249927    0.1000
     40 H40        -1.6398    1.6094   59.4435 H       1  ZINC000892249927    0.1000
     41 H41         0.4898    1.0595   58.1800 H       1  ZINC000892249927    0.1000
     42 H42         1.4850    1.4780   59.6753 H       1  ZINC000892249927    0.1000
     43 H43        -2.6092    3.3323   58.5164 H       1  ZINC000892249927    0.1200
     44 H44        -3.6509    4.1093   56.4249 H       1  ZINC000892249927    0.1200
     45 H45        -6.0070    2.8599   52.4990 H       1  ZINC000892249927    0.4000
     46 H46        -6.5287    2.3964   49.3372 H       1  ZINC000892249927    0.0800
     47 H47        -7.3831    0.8398   49.4773 H       1  ZINC000892249927    0.0800
     48 H48        -7.8465    3.3110   51.2097 H       1  ZINC000892249927    0.0500
     49 H49        -8.9335    2.7020   49.9383 H       1  ZINC000892249927    0.1000
     50 H50        -9.6813   -0.8919   52.0877 H       1  ZINC000892249927    0.1300
     51 H51       -10.8875   -2.3377   53.7115 H       1  ZINC000892249927    0.1400
     52 H52       -10.5397   -1.9879   56.1240 H       1  ZINC000892249927    0.1600
     53 H53        -7.8852    1.1190   55.3983 H       1  ZINC000892249927    0.1600
     54 H54        -7.1061   -0.5387   51.6004 H       1  ZINC000892249927    0.0900
     55 H55        -6.0656    0.0804   52.9067 H       1  ZINC000892249927    0.0800
@<TRIPOS>BOND
     1     1     2    2
     2     2     3    1
     3     2    15   am
     4     3     4    1
     5     3    30    1
     6     3    31    1
     7     4     5    1
     8     4    32    1
     9     4    33    1
    10     5     6    1
    11     5    34    1
    12     5    35    1
    13     6    14   ar
    14     6     7   ar
    15     7     8   ar
    16     7    36    1
    17     8     9   ar
    18     8    37    1
    19     9    10    1
    20     9    13   ar
    21    10    12    1
    22    10    11    1
    23    10    38    1
    24    11    12    1
    25    11    39    1
    26    11    40    1
    27    12    41    1
    28    12    42    1
    29    13    14   ar
    30    13    43    1
    31    14    44    1
    32    15    16    1
    33    15    45    1
    34    16    17    1
    35    16    29    1
    36    16    18    1
    37    18    19    1
    38    18    46    1
    39    18    47    1
    40    19    20    1
    41    19    48    1
    42    19    49    1
    43    20    21    1
    44    21    22    1
    45    21    23    1
    46    21    29    1
    47    23    28   ar
    48    23    24   ar
    49    24    25   ar
    50    24    50    1
    51    25    26   ar
    52    25    51    1
    53    26    27   ar
    54    26    52    1
    55    27    28   ar
    56    28    53    1
    57    29    54    1
    58    29    55    1
@<TRIPOS>SUBSTRUCTURE
     1 ZINC000892249927        1 TEMP              0 ****  ****    0 ROOT


##########                                Name:    ZINC000609484313
##########                DOCK_Rotatable_Bonds:                  10
##########                         Heavy_Atoms:                  26
##########                    Molecular_Weight:             361.487
##########                DOCK_Rotatable_Bonds:                  10
##########                       Formal_Charge:          -0.0200004
##########                     HBond_Acceptors:                   7
##########                        HBond_Donors:                   1
##########                         Heavy_Atoms:                  26
##########                          Grid_Score:          -32.138012
##########                     Grid_vdw_energy:          -32.106598
##########                      Grid_es_energy:           -0.031415
##########           Internal_energy_repulsive:           39.322655

@<TRIPOS>MOLECULE
ZINC000609484313
 57 58 1 0 0
SMALL
USER_CHARGES


@<TRIPOS>ATOM
      1 C1         -8.1818   -2.1248   59.6382 C.3     1  ZINC000609484313   -0.1500
      2 C2         -9.6650   -2.3158   59.3152 C.3     1  ZINC000609484313   -0.1300
      3 C3        -10.3418   -0.9485   59.1989 C.3     1  ZINC000609484313   -0.1100
      4 C4         -9.8333   -0.2326   57.9459 C.3     1  ZINC000609484313   -0.1100
      5 C5        -10.2333   -1.0318   56.7041 C.3     1  ZINC000609484313    0.0800
      6 H6         -9.6495   -1.9512   56.6601 H       1  ZINC000609484313    0.1200
      7 C7        -11.6999   -1.3708   56.7756 C.2     1  ZINC000609484313    0.4900
      8 O8        -12.5104   -0.5058   57.0320 O.2     1  ZINC000609484313   -0.5000
      9 N9        -12.1108   -2.6353   56.5548 N.am    1  ZINC000609484313   -0.6300
     10 C10       -13.4686   -2.9487   56.6194 C.2     1  ZINC000609484313    0.2400
     11 N11       -13.9928   -4.1121   56.9034 N.2     1  ZINC000609484313   -0.3900
     12 O12       -15.2010   -4.0706   56.8812 O.3     1  ZINC000609484313    0.1000
     13 C13       -15.6504   -2.8455   56.5724 C.2     1  ZINC000609484313   -0.0200
     14 C14       -17.0906   -2.4184   56.4525 C.3     1  ZINC000609484313   -0.0800
     15 C15       -14.5590   -2.0665   56.3959 C.2     1  ZINC000609484313   -0.2300
     16 N16        -9.9744   -0.2294   55.5011 N.3     1  ZINC000609484313   -0.5000
     17 C17       -10.3845   -0.9509   54.2883 C.3     1  ZINC000609484313    0.0400
     18 C18       -10.1728   -0.0528   53.0674 C.3     1  ZINC000609484313    0.0500
     19 N19        -8.7587    0.3396   52.9904 N.3     1  ZINC000609484313   -0.5100
     20 C20        -8.4998    1.1421   51.7874 C.3     1  ZINC000609484313    0.1800
     21 H21        -8.9882    0.6793   50.9299 H       1  ZINC000609484313    0.1200
     22 C22        -9.0311    2.5012   51.9805 C.1     1  ZINC000609484313    0.1700
     23 N23        -9.4412    3.5501   52.1294 N.1     1  ZINC000609484313   -0.4200
     24 C24        -6.9920    1.2146   51.5377 C.3     1  ZINC000609484313   -0.0800
     25 C25        -6.4506   -0.1918   51.2737 C.3     1  ZINC000609484313   -0.1400
     26 C26        -6.7186    2.1028   50.3221 C.3     1  ZINC000609484313   -0.1500
     27 C27        -8.3486    1.0613   54.2031 C.3     1  ZINC000609484313    0.0500
     28 C28        -8.5602    0.1631   55.4241 C.3     1  ZINC000609484313    0.0400
     29 H29        -7.7075   -1.5513   58.8418 H       1  ZINC000609484313    0.0500
     30 H30        -8.0815   -1.5882   60.5816 H       1  ZINC000609484313    0.0500
     31 H31        -7.6997   -3.0989   59.7210 H       1  ZINC000609484313    0.0500
     32 H32        -9.7654   -2.8523   58.3718 H       1  ZINC000609484313    0.0600
     33 H33       -10.1394   -2.8893   60.1116 H       1  ZINC000609484313    0.0600
     34 H34       -11.4212   -1.0821   59.1281 H       1  ZINC000609484313    0.0800
     35 H35       -10.1066   -0.3506   60.0795 H       1  ZINC000609484313    0.0600
     36 H36       -10.2718    0.7638   57.8935 H       1  ZINC000609484313    0.0700
     37 H37        -8.7474   -0.1497   57.9904 H       1  ZINC000609484313    0.0800
     38 H38       -11.4624   -3.3273   56.3510 H       1  ZINC000609484313    0.4200
     39 H39       -17.7402   -3.2693   56.6575 H       1  ZINC000609484313    0.0800
     40 H40       -17.2949   -1.6240   57.1704 H       1  ZINC000609484313    0.0900
     41 H41       -17.2783   -2.0528   55.4430 H       1  ZINC000609484313    0.0900
     42 H42       -14.5245   -1.0185   56.1377 H       1  ZINC000609484313    0.1900
     43 H43        -9.7850   -1.8551   54.1830 H       1  ZINC000609484313    0.0800
     44 H44       -11.4382   -1.2196   54.3639 H       1  ZINC000609484313    0.0800
     45 H45       -10.4491   -0.5963   52.1638 H       1  ZINC000609484313    0.0900
     46 H46       -10.7931    0.8388   53.1599 H       1  ZINC000609484313    0.0400
     47 H47        -6.4985    1.6355   52.4136 H       1  ZINC000609484313    0.0800
     48 H48        -6.9442   -0.6127   50.3977 H       1  ZINC000609484313    0.0600
     49 H49        -5.3764   -0.1401   51.0957 H       1  ZINC000609484313    0.0500
     50 H50        -6.6453   -0.8245   52.1396 H       1  ZINC000609484313    0.0700
     51 H51        -5.6545    2.0799   50.0875 H       1  ZINC000609484313    0.0700
     52 H52        -7.2870    1.7348   49.4680 H       1  ZINC000609484313    0.0600
     53 H53        -7.0197    3.1264   50.5451 H       1  ZINC000609484313    0.0500
     54 H54        -7.2949    1.3300   54.1276 H       1  ZINC000609484313    0.0900
     55 H55        -8.9481    1.9655   54.3085 H       1  ZINC000609484313    0.0400
     56 H56        -8.2840    0.7065   56.3276 H       1  ZINC000609484313    0.0800
     57 H57        -7.9400   -0.7285   55.3316 H       1  ZINC000609484313    0.0800
@<TRIPOS>BOND
     1     1     2    1
     2     1    29    1
     3     1    30    1
     4     1    31    1
     5     2     3    1
     6     2    32    1
     7     2    33    1
     8     3     4    1
     9     3    34    1
    10     3    35    1
    11     4     5    1
    12     4    36    1
    13     4    37    1
    14     5     6    1
    15     5     7    1
    16     5    16    1
    17     7     8    2
    18     7     9   am
    19     9    10    1
    20     9    38    1
    21    10    15    1
    22    10    11    2
    23    11    12    1
    24    12    13    1
    25    13    14    1
    26    13    15    2
    27    14    39    1
    28    14    40    1
    29    14    41    1
    30    15    42    1
    31    16    28    1
    32    16    17    1
    33    17    18    1
    34    17    43    1
    35    17    44    1
    36    18    19    1
    37    18    45    1
    38    18    46    1
    39    19    20    1
    40    19    27    1
    41    20    21    1
    42    20    22    1
    43    20    24    1
    44    22    23    3
    45    24    25    1
    46    24    26    1
    47    24    47    1
    48    25    48    1
    49    25    49    1
    50    25    50    1
    51    26    51    1
    52    26    52    1
    53    26    53    1
    54    27    28    1
    55    27    54    1
    56    27    55    1
    57    28    56    1
    58    28    57    1
@<TRIPOS>SUBSTRUCTURE
     1 ZINC000609484313        1 TEMP              0 ****  ****    0 ROOT


##########                                Name:    ZINC000432833246
##########                DOCK_Rotatable_Bonds:                   5
##########                         Heavy_Atoms:                  25
##########                    Molecular_Weight:             400.318
##########                DOCK_Rotatable_Bonds:                   5
##########                       Formal_Charge:        -3.20375e-07
##########                     HBond_Acceptors:                   4
##########                        HBond_Donors:                   1
##########                         Heavy_Atoms:                  25
##########                          Grid_Score:          -32.122673
##########                     Grid_vdw_energy:          -28.902645
##########                      Grid_es_energy:           -3.220027
##########           Internal_energy_repulsive:            7.759629

@<TRIPOS>MOLECULE
ZINC000432833246
 47 51 1 0 0
SMALL
USER_CHARGES


@<TRIPOS>ATOM
      1 O1         -8.0674   -0.1327   66.1404 O.2     1  ZINC000432833246   -0.5200
      2 C2         -8.4501    0.3744   65.1073 C.2     1  ZINC000432833246    0.5200
      3 C3         -7.9629   -0.0012   63.7252 C.3     1  ZINC000432833246   -0.1500
      4 C4         -9.0227    0.6002   62.7732 C.3     1  ZINC000432833246   -0.1100
      5 H5         -9.7928   -0.1332   62.5338 H       1  ZINC000432833246    0.1000
      6 C6         -8.3703    1.1408   61.4992 C.3     1  ZINC000432833246    0.1300
      7 N7         -7.8363    0.0258   60.7131 N.pl3   1  ZINC000432833246   -0.7200
      8 C8         -8.5178   -0.4203   59.5909 C.ar    1  ZINC000432833246    0.2800
      9 C9         -8.3040    0.1720   58.3235 C.ar    1  ZINC000432833246   -0.1500
     10 C10        -7.3977    1.2282   58.1553 C.ar    1  ZINC000432833246   -0.0700
     11 C11        -7.2187    1.7723   56.9191 C.ar    1  ZINC000432833246   -0.1300
     12 C12        -7.9255    1.2928   55.8191 C.ar    1  ZINC000432833246   -0.0600
     13 C13        -8.8135    0.2681   55.9477 C.ar    1  ZINC000432833246   -0.0800
     14 Br14       -9.7593   -0.3635   54.4367 Br      1  ZINC000432833246   -0.0300
     15 C15        -9.0239   -0.3188   57.2083 C.ar    1  ZINC000432833246    0.1900
     16 N16        -9.8896   -1.3268   57.3631 N.ar    1  ZINC000432833246   -0.5000
     17 C17       -10.0962   -1.8846   58.5335 C.ar    1  ZINC000432833246    0.2400
     18 C18       -11.0851   -3.0166   58.6407 C.3     1  ZINC000432833246   -0.1100
     19 C19       -12.3800   -2.9023   57.8337 C.3     1  ZINC000432833246   -0.1700
     20 C20       -11.2948   -3.8911   57.4029 C.3     1  ZINC000432833246   -0.1600
     21 C21        -9.4259   -1.4643   59.6739 C.ar    1  ZINC000432833246   -0.2700
     22 C22        -9.6001    1.7486   63.6298 C.3     1  ZINC000432833246    0.1100
     23 N23        -9.3731    1.3481   65.0234 N.am    1  ZINC000432833246   -0.5900
     24 C24       -10.0577    1.9396   66.1756 C.3     1  ZINC000432833246    0.0800
     25 C25       -10.3442    3.4419   66.1323 C.3     1  ZINC000432833246   -0.1900
     26 C26       -11.4885    2.4398   65.9668 C.3     1  ZINC000432833246   -0.1900
     27 H27        -6.9842    0.4385   63.5331 H       1  ZINC000432833246    0.1100
     28 H28        -7.9233   -1.0850   63.6162 H       1  ZINC000432833246    0.1000
     29 H29        -9.1138    1.6776   60.9100 H       1  ZINC000432833246    0.0800
     30 H30        -7.5594    1.8187   61.7658 H       1  ZINC000432833246    0.0700
     31 H31        -7.0060   -0.4002   60.9775 H       1  ZINC000432833246    0.4000
     32 H32        -6.8445    1.6087   59.0012 H       1  ZINC000432833246    0.1300
     33 H33        -6.5202    2.5860   56.7906 H       1  ZINC000432833246    0.1400
     34 H34        -7.7673    1.7407   54.8492 H       1  ZINC000432833246    0.1400
     35 H35       -11.1402   -3.5021   59.6150 H       1  ZINC000432833246    0.1300
     36 H36       -13.2872   -3.3125   58.2772 H       1  ZINC000432833246    0.1000
     37 H37       -12.5165   -2.0083   57.2253 H       1  ZINC000432833246    0.1000
     38 H38       -10.7175   -3.6477   56.5110 H       1  ZINC000432833246    0.0900
     39 H39       -11.4882   -4.9518   57.5630 H       1  ZINC000432833246    0.1000
     40 H40        -9.6168   -1.9431   60.6228 H       1  ZINC000432833246    0.1400
     41 H41        -9.0789    2.6807   63.4117 H       1  ZINC000432833246    0.0800
     42 H42       -10.6679    1.8597   63.4412 H       1  ZINC000432833246    0.0900
     43 H43        -9.8141    1.5011   67.1433 H       1  ZINC000432833246    0.1300
     44 H44       -10.2889    3.9921   67.0716 H       1  ZINC000432833246    0.1000
     45 H45       -10.0233    3.9902   65.2466 H       1  ZINC000432833246    0.1300
     46 H46       -11.9203    2.3289   64.9722 H       1  ZINC000432833246    0.0900
     47 H47       -12.1860    2.3308   66.7973 H       1  ZINC000432833246    0.1000
@<TRIPOS>BOND
     1     1     2    2
     2     2    23   am
     3     2     3    1
     4     3     4    1
     5     3    27    1
     6     3    28    1
     7     4     5    1
     8     4     6    1
     9     4    22    1
    10     6     7    1
    11     6    29    1
    12     6    30    1
    13     7     8    1
    14     7    31    1
    15     8    21   ar
    16     8     9   ar
    17     9    15   ar
    18     9    10   ar
    19    10    11   ar
    20    10    32    1
    21    11    12   ar
    22    11    33    1
    23    12    13   ar
    24    12    34    1
    25    13    14    1
    26    13    15   ar
    27    15    16   ar
    28    16    17   ar
    29    17    18    1
    30    17    21   ar
    31    18    20    1
    32    18    19    1
    33    18    35    1
    34    19    20    1
    35    19    36    1
    36    19    37    1
    37    20    38    1
    38    20    39    1
    39    21    40    1
    40    22    23    1
    41    22    41    1
    42    22    42    1
    43    23    24    1
    44    24    26    1
    45    24    25    1
    46    24    43    1
    47    25    26    1
    48    25    44    1
    49    25    45    1
    50    26    46    1
    51    26    47    1
@<TRIPOS>SUBSTRUCTURE
     1 ZINC000432833246        1 TEMP              0 ****  ****    0 ROOT


##########                                Name:    ZINC000774689801
##########                DOCK_Rotatable_Bonds:                   4
##########                         Heavy_Atoms:                  24
##########                    Molecular_Weight:             347.395
##########                DOCK_Rotatable_Bonds:                   4
##########                       Formal_Charge:         -0.00999961
##########                     HBond_Acceptors:                   8
##########                        HBond_Donors:                   1
##########                         Heavy_Atoms:                  24
##########                          Grid_Score:          -32.111786
##########                     Grid_vdw_energy:          -32.021950
##########                      Grid_es_energy:           -0.089837
##########           Internal_energy_repulsive:            7.792639

@<TRIPOS>MOLECULE
ZINC000774689801
 41 44 1 0 0
SMALL
USER_CHARGES


@<TRIPOS>ATOM
      1 C1         -8.7400   -0.1548   57.3465 C.3     1  ZINC000774689801   -0.1200
      2 C2         -9.2467   -0.7390   56.0529 C.2     1  ZINC000774689801    0.0600
      3 C3        -10.1841   -1.6998   56.0193 C.2     1  ZINC000774689801   -0.2800
      4 C4        -10.8188   -2.2885   57.2004 C.2     1  ZINC000774689801    0.5500
      5 O5        -10.7337   -3.4846   57.4039 O.2     1  ZINC000774689801   -0.4900
      6 O6        -11.4977   -1.5042   58.0629 O.3     1  ZINC000774689801   -0.3400
      7 C7        -12.2630   -2.1731   59.0998 C.3     1  ZINC000774689801    0.0900
      8 C8        -13.7402   -2.2056   58.7026 C.3     1  ZINC000774689801   -0.1300
      9 H9        -14.0475   -1.2403   58.3002 H       1  ZINC000774689801    0.1200
     10 C10       -13.9988   -3.3287   57.6716 C.3     1  ZINC000774689801   -0.1300
     11 C11       -15.3957   -3.8320   58.0979 C.3     1  ZINC000774689801    0.1000
     12 N12       -15.5132   -3.5010   59.5229 N.am    1  ZINC000774689801   -0.7400
     13 C13       -14.5994   -2.5824   59.8894 C.2     1  ZINC000774689801    0.5200
     14 O14       -14.4813   -2.1277   61.0075 O.2     1  ZINC000774689801   -0.5100
     15 S15       -10.5428   -2.1509   54.3612 S.3     1  ZINC000774689801    0.3000
     16 C16        -9.3757   -0.9890   53.7415 C.2     1  ZINC000774689801    0.1000
     17 C17        -8.7780   -0.3144   54.8112 C.2     1  ZINC000774689801   -0.2500
     18 C18        -7.7660    0.7051   54.4750 C.2     1  ZINC000774689801    0.5700
     19 O19        -7.2011    1.3335   55.3524 O.2     1  ZINC000774689801   -0.5000
     20 N20        -7.4783    0.9273   53.1710 N.am    1  ZINC000774689801   -0.5500
     21 C21        -6.5217    1.8836   52.5874 C.3     1  ZINC000774689801    0.0900
     22 C22        -6.2865    1.4040   51.1402 C.3     1  ZINC000774689801   -0.1300
     23 C23        -7.6030    0.6565   50.8374 C.3     1  ZINC000774689801   -0.0800
     24 C24        -8.1106    0.2192   52.2013 C.2     1  ZINC000774689801    0.4200
     25 N25        -9.0127   -0.6828   52.4840 N.2     1  ZINC000774689801   -0.5100
     26 H26        -9.3554    0.7009   57.6244 H       1  ZINC000774689801    0.0800
     27 H27        -8.7918   -0.9097   58.1310 H       1  ZINC000774689801    0.1000
     28 H28        -7.7063    0.1670   57.2195 H       1  ZINC000774689801    0.0800
     29 H29       -11.8969   -3.1926   59.2212 H       1  ZINC000774689801    0.0900
     30 H30       -12.1513   -1.6326   60.0397 H       1  ZINC000774689801    0.0800
     31 H31       -14.0207   -2.9298   56.6575 H       1  ZINC000774689801    0.1000
     32 H32       -13.2548   -4.1201   57.7619 H       1  ZINC000774689801    0.0900
     33 H33       -16.1712   -3.3213   57.5269 H       1  ZINC000774689801    0.0800
     34 H34       -15.4684   -4.9100   57.9539 H       1  ZINC000774689801    0.0800
     35 H35       -16.1665   -3.8925   60.1236 H       1  ZINC000774689801    0.4100
     36 H36        -6.9454    2.8878   52.5875 H       1  ZINC000774689801    0.1000
     37 H37        -5.5858    1.8687   53.1460 H       1  ZINC000774689801    0.1000
     38 H38        -6.1545    2.2501   50.4658 H       1  ZINC000774689801    0.1100
     39 H39        -5.4331    0.7280   51.0873 H       1  ZINC000774689801    0.0900
     40 H40        -8.3197    1.3251   50.3606 H       1  ZINC000774689801    0.1200
     41 H41        -7.4117   -0.2112   50.2060 H       1  ZINC000774689801    0.1200
@<TRIPOS>BOND
     1     1     2    1
     2     1    26    1
     3     1    27    1
     4     1    28    1
     5     2    17    1
     6     2     3    2
     7     3     4    1
     8     3    15    1
     9     4     5    2
    10     4     6    1
    11     6     7    1
    12     7     8    1
    13     7    29    1
    14     7    30    1
    15     8     9    1
    16     8    13    1
    17     8    10    1
    18    10    11    1
    19    10    31    1
    20    10    32    1
    21    11    12    1
    22    11    33    1
    23    11    34    1
    24    12    13   am
    25    12    35    1
    26    13    14    2
    27    15    16    1
    28    16    25    1
    29    16    17    2
    30    17    18    1
    31    18    19    2
    32    18    20   am
    33    20    24    1
    34    20    21    1
    35    21    22    1
    36    21    36    1
    37    21    37    1
    38    22    23    1
    39    22    38    1
    40    22    39    1
    41    23    24    1
    42    23    40    1
    43    23    41    1
    44    24    25    2
@<TRIPOS>SUBSTRUCTURE
     1 ZINC000774689801        1 TEMP              0 ****  ****    0 ROOT


##########                                Name:    ZINC000938043669
##########                DOCK_Rotatable_Bonds:                   7
##########                         Heavy_Atoms:                  27
##########                    Molecular_Weight:             372.439
##########                DOCK_Rotatable_Bonds:                   7
##########                       Formal_Charge:           0.0499999
##########                     HBond_Acceptors:                   6
##########                        HBond_Donors:                   1
##########                         Heavy_Atoms:                  27
##########                          Grid_Score:          -32.098305
##########                     Grid_vdw_energy:          -31.903521
##########                      Grid_es_energy:           -0.194785
##########           Internal_energy_repulsive:           11.709168

@<TRIPOS>MOLECULE
ZINC000938043669
 52 55 1 0 0
SMALL
USER_CHARGES


@<TRIPOS>ATOM
      1 O1         -4.8675    3.2202   51.7369 O.2     1  ZINC000938043669   -0.5000
      2 C2         -5.2009    2.1919   51.1870 C.2     1  ZINC000938043669    0.5300
      3 C3         -4.4375    1.6987   49.9849 C.3     1  ZINC000938043669    0.0500
      4 O4         -3.2235    2.4409   49.8541 O.3     1  ZINC000938043669   -0.2800
      5 C5         -2.1094    1.7451   49.5033 C.ar    1  ZINC000938043669    0.0900
      6 C6         -2.1870    0.7474   48.5442 C.ar    1  ZINC000938043669   -0.1800
      7 C7         -1.0530    0.0416   48.1886 C.ar    1  ZINC000938043669   -0.0900
      8 C8          0.1587    0.3292   48.7881 C.ar    1  ZINC000938043669   -0.1300
      9 C9          0.2407    1.3235   49.7459 C.ar    1  ZINC000938043669   -0.1100
     10 C10        -0.8895    2.0368   50.1014 C.ar    1  ZINC000938043669    0.0800
     11 F11        -0.8098    3.0082   51.0369 F       1  ZINC000938043669   -0.1300
     12 N12        -6.2505    1.4874   51.6544 N.am    1  ZINC000938043669   -0.6200
     13 C13        -6.7568    0.2280   51.0897 C.3     1  ZINC000938043669    0.1000
     14 C14        -7.9454   -0.2216   51.9652 C.3     1  ZINC000938043669   -0.1400
     15 C15        -7.6859    0.5126   53.3072 C.3     1  ZINC000938043669    0.1300
     16 H16        -6.9727   -0.0370   53.9215 H       1  ZINC000938043669    0.1100
     17 N17        -8.9379    0.7363   54.0341 N.am    1  ZINC000938043669   -0.7200
     18 C18        -9.6332   -0.3124   54.5172 C.2     1  ZINC000938043669    0.5200
     19 O19        -9.2216   -1.4411   54.3514 O.2     1  ZINC000938043669   -0.5200
     20 C20       -10.9221   -0.0825   55.2635 C.3     1  ZINC000938043669   -0.1000
     21 H21       -11.5778    0.5530   54.6684 H       1  ZINC000938043669    0.1000
     22 C22       -10.6227    0.6025   56.5989 C.3     1  ZINC000938043669   -0.1100
     23 C23       -11.1108   -0.2844   57.7515 C.3     1  ZINC000938043669   -0.0600
     24 H24       -10.8611    0.1612   58.7144 H       1  ZINC000938043669    0.0800
     25 C25       -10.4533   -1.6482   57.6012 C.2     1  ZINC000938043669   -0.1800
     26 C26       -10.7137   -2.2440   56.4399 C.2     1  ZINC000938043669   -0.1300
     27 C27       -11.6109   -1.4289   55.5208 C.3     1  ZINC000938043669   -0.0400
     28 H28       -11.7969   -1.9630   54.5889 H       1  ZINC000938043669    0.0900
     29 C29       -12.9252   -1.1634   56.2677 C.3     1  ZINC000938043669   -0.1200
     30 C30       -12.6289   -0.4639   57.6124 C.3     1  ZINC000938043669   -0.1100
     31 C31        -7.0771    1.8488   52.8204 C.3     1  ZINC000938043669    0.1000
     32 H32        -4.2050    0.6411   50.1109 H       1  ZINC000938043669    0.1000
     33 H33        -5.0438    1.8331   49.0892 H       1  ZINC000938043669    0.1000
     34 H34        -3.1332    0.5215   48.0751 H       1  ZINC000938043669    0.1400
     35 H35        -1.1139   -0.7360   47.4415 H       1  ZINC000938043669    0.1300
     36 H36         1.0432   -0.2240   48.5084 H       1  ZINC000938043669    0.1400
     37 H37         1.1886    1.5459   50.2131 H       1  ZINC000938043669    0.1500
     38 H38        -7.0914    0.3892   50.0648 H       1  ZINC000938043669    0.0800
     39 H39        -5.9733   -0.5294   51.1111 H       1  ZINC000938043669    0.0800
     40 H40        -8.8905    0.0991   51.5267 H       1  ZINC000938043669    0.0900
     41 H41        -7.9324   -1.3021   52.1079 H       1  ZINC000938043669    0.1000
     42 H42        -9.2665    1.6391   54.1679 H       1  ZINC000938043669    0.4000
     43 H43        -9.5485    0.7613   56.6927 H       1  ZINC000938043669    0.0700
     44 H44       -11.1362    1.5632   56.6373 H       1  ZINC000938043669    0.0800
     45 H45        -9.8329   -2.0918   58.3659 H       1  ZINC000938043669    0.1200
     46 H46       -10.3236   -3.2155   56.1744 H       1  ZINC000938043669    0.1200
     47 H47       -13.5623   -0.5177   55.6633 H       1  ZINC000938043669    0.0700
     48 H48       -13.4361   -2.1087   56.4508 H       1  ZINC000938043669    0.0700
     49 H49       -12.9965   -1.0817   58.4317 H       1  ZINC000938043669    0.0700
     50 H50       -13.1283    0.5045   57.6358 H       1  ZINC000938043669    0.0700
     51 H51        -6.4618    2.2926   53.6029 H       1  ZINC000938043669    0.0900
     52 H52        -7.8662    2.5381   52.5203 H       1  ZINC000938043669    0.0700
@<TRIPOS>BOND
     1     1     2    2
     2     2     3    1
     3     2    12   am
     4     3     4    1
     5     3    32    1
     6     3    33    1
     7     4     5    1
     8     5    10   ar
     9     5     6   ar
    10     6     7   ar
    11     6    34    1
    12     7     8   ar
    13     7    35    1
    14     8     9   ar
    15     8    36    1
    16     9    10   ar
    17     9    37    1
    18    10    11    1
    19    12    31    1
    20    12    13    1
    21    13    14    1
    22    13    38    1
    23    13    39    1
    24    14    15    1
    25    14    40    1
    26    14    41    1
    27    15    16    1
    28    15    17    1
    29    15    31    1
    30    17    18   am
    31    17    42    1
    32    18    19    2
    33    18    20    1
    34    20    21    1
    35    20    27    1
    36    20    22    1
    37    22    23    1
    38    22    43    1
    39    22    44    1
    40    23    24    1
    41    23    30    1
    42    23    25    1
    43    25    26    2
    44    25    45    1
    45    26    27    1
    46    26    46    1
    47    27    28    1
    48    27    29    1
    49    29    30    1
    50    29    47    1
    51    29    48    1
    52    30    49    1
    53    30    50    1
    54    31    51    1
    55    31    52    1
@<TRIPOS>SUBSTRUCTURE
     1 ZINC000938043669        1 TEMP              0 ****  ****    0 ROOT


##########                                Name:    ZINC000457806032
##########                DOCK_Rotatable_Bonds:                   8
##########                         Heavy_Atoms:                  24
##########                    Molecular_Weight:             387.911
##########                DOCK_Rotatable_Bonds:                   8
##########                       Formal_Charge:        -1.49012e-07
##########                     HBond_Acceptors:                   9
##########                        HBond_Donors:                   2
##########                         Heavy_Atoms:                  24
##########                          Grid_Score:          -32.090672
##########                     Grid_vdw_energy:          -31.039425
##########                      Grid_es_energy:           -1.051248
##########           Internal_energy_repulsive:            4.870168

@<TRIPOS>MOLECULE
ZINC000457806032
 42 43 1 0 0
SMALL
USER_CHARGES


@<TRIPOS>ATOM
      1 C1         -5.7455    4.2658   52.2856 C.3     1  ZINC000457806032    0.0800
      2 N2         -5.1121    3.2618   51.4270 N.am    1  ZINC000457806032   -1.0100
      3 C3         -3.7008    3.3985   51.0584 C.3     1  ZINC000457806032    0.0900
      4 S4         -5.9913    1.9724   50.8732 S.o2    1  ZINC000457806032    2.7900
      5 O5         -7.1447    2.5138   50.2440 O.2     1  ZINC000457806032   -0.9700
      6 O6         -5.0727    1.1163   50.2080 O.2     1  ZINC000457806032   -0.9700
      7 N7         -6.5296    1.1401   52.1999 N.am    1  ZINC000457806032   -1.1300
      8 C8         -7.3451   -0.0646   52.0276 C.3     1  ZINC000457806032    0.1100
      9 C9         -8.4022   -0.1271   53.1318 C.3     1  ZINC000457806032    0.1100
     10 N10        -7.8510    0.4338   54.3678 N.am    1  ZINC000457806032   -0.7300
     11 C11        -8.5991    0.4593   55.4887 C.2     1  ZINC000457806032    0.5800
     12 O12        -9.7313    0.0151   55.4743 O.2     1  ZINC000457806032   -0.5300
     13 C13        -8.0457    1.0247   56.7304 C.2     1  ZINC000457806032   -0.1500
     14 C14        -7.0136    1.9138   56.7454 C.2     1  ZINC000457806032   -0.2200
     15 S15        -6.6302    2.3587   58.3471 S.3     1  ZINC000457806032    0.2400
     16 C16        -7.8900    1.3214   58.9979 C.2     1  ZINC000457806032   -0.1700
     17 C17        -8.1979    1.1596   60.4353 C.ar    1  ZINC000457806032   -0.0100
     18 C18        -7.9762    2.2140   61.3220 C.ar    1  ZINC000457806032   -0.0900
     19 C19        -8.2653    2.0573   62.6618 C.ar    1  ZINC000457806032   -0.1000
     20 C20        -8.7739    0.8565   63.1272 C.ar    1  ZINC000457806032   -0.0300
     21 Cl21       -9.1348    0.6665   64.8146 Cl      1  ZINC000457806032   -0.0600
     22 C22        -8.9964   -0.1931   62.2519 C.ar    1  ZINC000457806032   -0.1000
     23 C23        -8.7165   -0.0460   60.9091 C.ar    1  ZINC000457806032   -0.1000
     24 C24        -8.5356    0.7020   57.9970 C.2     1  ZINC000457806032   -0.0700
     25 H25        -6.1721    5.0556   51.6673 H       1  ZINC000457806032    0.0600
     26 H26        -6.5357    3.7963   52.8716 H       1  ZINC000457806032    0.0800
     27 H27        -5.0000    4.6924   52.9567 H       1  ZINC000457806032    0.0800
     28 H28        -3.0813    2.8916   51.7983 H       1  ZINC000457806032    0.0600
     29 H29        -3.5362    2.9507   50.0784 H       1  ZINC000457806032    0.0700
     30 H30        -3.4349    4.4550   51.0244 H       1  ZINC000457806032    0.0700
     31 H31        -6.3047    1.4503   53.0910 H       1  ZINC000457806032    0.4200
     32 H32        -7.8368   -0.0345   51.0552 H       1  ZINC000457806032    0.0700
     33 H33        -6.7071   -0.9466   52.0849 H       1  ZINC000457806032    0.0900
     34 H34        -9.2772    0.4486   52.8301 H       1  ZINC000457806032    0.0800
     35 H35        -8.6905   -1.1647   53.3005 H       1  ZINC000457806032    0.0800
     36 H36        -6.9476    0.7869   54.3796 H       1  ZINC000457806032    0.4000
     37 H37        -6.5086    2.2852   55.8660 H       1  ZINC000457806032    0.1700
     38 H38        -7.5789    3.1509   60.9602 H       1  ZINC000457806032    0.1400
     39 H39        -8.0942    2.8727   63.3490 H       1  ZINC000457806032    0.1400
     40 H40        -9.3933   -1.1273   62.6207 H       1  ZINC000457806032    0.1400
     41 H41        -8.8908   -0.8653   60.2273 H       1  ZINC000457806032    0.1300
     42 H42        -9.3516    0.0128   58.1572 H       1  ZINC000457806032    0.1600
@<TRIPOS>BOND
     1     1     2    1
     2     1    25    1
     3     1    26    1
     4     1    27    1
     5     2     3    1
     6     2     4   am
     7     3    28    1
     8     3    29    1
     9     3    30    1
    10     4     5    2
    11     4     6    2
    12     4     7   am
    13     7     8    1
    14     7    31    1
    15     8     9    1
    16     8    32    1
    17     8    33    1
    18     9    10    1
    19     9    34    1
    20     9    35    1
    21    10    11   am
    22    10    36    1
    23    11    12    2
    24    11    13    1
    25    13    24    1
    26    13    14    2
    27    14    15    1
    28    14    37    1
    29    15    16    1
    30    16    17    1
    31    16    24    2
    32    17    23   ar
    33    17    18   ar
    34    18    19   ar
    35    18    38    1
    36    19    20   ar
    37    19    39    1
    38    20    21    1
    39    20    22   ar
    40    22    23   ar
    41    22    40    1
    42    23    41    1
    43    24    42    1
@<TRIPOS>SUBSTRUCTURE
     1 ZINC000457806032        1 TEMP              0 ****  ****    0 ROOT


##########                                Name:    ZINC000646817380
##########                DOCK_Rotatable_Bonds:                   6
##########                         Heavy_Atoms:                  25
##########                    Molecular_Weight:             347.457
##########                DOCK_Rotatable_Bonds:                   6
##########                       Formal_Charge:           0.0199991
##########                     HBond_Acceptors:                   6
##########                        HBond_Donors:                   1
##########                         Heavy_Atoms:                  25
##########                          Grid_Score:          -32.087524
##########                     Grid_vdw_energy:          -31.326126
##########                      Grid_es_energy:           -0.761398
##########           Internal_energy_repulsive:           52.513695

@<TRIPOS>MOLECULE
ZINC000646817380
 54 56 1 0 0
SMALL
USER_CHARGES


@<TRIPOS>ATOM
      1 C1         -7.5181    2.7600   50.2250 C.3     1  ZINC000646817380   -0.1500
      2 C2         -7.2597    1.2859   50.5429 C.3     1  ZINC000646817380   -0.0100
      3 C3         -5.7538    1.0484   50.6720 C.3     1  ZINC000646817380   -0.1500
      4 C4         -7.9381    0.9251   51.8393 C.2     1  ZINC000646817380   -0.0100
      5 C5         -7.8538   -0.2551   52.4943 C.2     1  ZINC000646817380   -0.2200
      6 C6         -8.6705   -0.0691   53.6417 C.2     1  ZINC000646817380    0.2400
      7 N7         -8.9204   -0.9979   54.6502 N.am    1  ZINC000646817380   -0.6100
      8 C8        -10.1732   -1.1630   55.1188 C.2     1  ZINC000646817380    0.5200
      9 O9        -11.0834   -0.5018   54.6638 O.2     1  ZINC000646817380   -0.4900
     10 C10       -10.4415   -2.1598   56.1985 C.2     1  ZINC000646817380    0.5300
     11 O11       -10.9989   -3.2051   55.9345 O.2     1  ZINC000646817380   -0.5100
     12 N12       -10.0647   -1.8985   57.4658 N.am    1  ZINC000646817380   -0.5800
     13 C13       -10.2658   -2.7867   58.6199 C.3     1  ZINC000646817380    0.1000
     14 C14        -9.7003   -2.0622   59.8597 C.3     1  ZINC000646817380   -0.1300
     15 C15        -9.7238   -0.5711   59.4316 C.3     1  ZINC000646817380   -0.1000
     16 H16       -10.7132   -0.1378   59.5789 H       1  ZINC000646817380    0.1000
     17 C17        -8.6595    0.2318   60.1822 C.3     1  ZINC000646817380   -0.0700
     18 H18        -7.8116   -0.4085   60.4254 H       1  ZINC000646817380    0.0800
     19 C19        -8.1919    1.4236   59.3215 C.3     1  ZINC000646817380   -0.1300
     20 C20        -7.9702    2.5663   60.3433 C.3     1  ZINC000646817380   -0.1300
     21 C21        -9.1333    2.3595   61.3450 C.3     1  ZINC000646817380   -0.1200
     22 C22        -9.2577    0.8258   61.4695 C.3     1  ZINC000646817380   -0.0700
     23 C23       -10.7297    0.4279   61.5955 C.3     1  ZINC000646817380   -0.1600
     24 C24        -8.4749    0.3337   62.6885 C.3     1  ZINC000646817380   -0.1400
     25 C25        -9.3771   -0.6772   57.9232 C.3     1  ZINC000646817380    0.0900
     26 N26        -9.1402    1.1484   53.5618 N.2     1  ZINC000646817380   -0.3800
     27 O27        -8.7383    1.7136   52.5712 O.3     1  ZINC000646817380    0.1100
     28 H28        -7.0274    3.0209   49.2873 H       1  ZINC000646817380    0.0700
     29 H29        -8.5910    2.9292   50.1331 H       1  ZINC000646817380    0.0600
     30 H30        -7.1201    3.3801   51.0283 H       1  ZINC000646817380    0.0600
     31 H31        -7.6577    0.6658   49.7397 H       1  ZINC000646817380    0.1100
     32 H32        -5.3557    1.6685   51.4753 H       1  ZINC000646817380    0.0600
     33 H33        -5.5696   -0.0018   50.8985 H       1  ZINC000646817380    0.0600
     34 H34        -5.2631    1.3094   49.7343 H       1  ZINC000646817380    0.0700
     35 H35        -7.2954   -1.1349   52.2107 H       1  ZINC000646817380    0.1900
     36 H36        -8.1928   -1.5256   55.0147 H       1  ZINC000646817380    0.4300
     37 H37       -11.3295   -2.9812   58.7573 H       1  ZINC000646817380    0.0800
     38 H38        -9.7326   -3.7244   58.4633 H       1  ZINC000646817380    0.0800
     39 H39       -10.3407   -2.2247   60.7267 H       1  ZINC000646817380    0.0900
     40 H40        -8.6808   -2.3884   60.0654 H       1  ZINC000646817380    0.0800
     41 H41        -7.2598    1.1827   58.8104 H       1  ZINC000646817380    0.0700
     42 H42        -8.9625    1.6998   58.6016 H       1  ZINC000646817380    0.0800
     43 H43        -7.0070    2.4572   60.8419 H       1  ZINC000646817380    0.0700
     44 H44        -8.0470    3.5391   59.8576 H       1  ZINC000646817380    0.0700
     45 H45        -8.8881    2.8015   62.3108 H       1  ZINC000646817380    0.0700
     46 H46       -10.0559    2.7868   60.9521 H       1  ZINC000646817380    0.0700
     47 H47       -11.3340    1.0606   60.9453 H       1  ZINC000646817380    0.0700
     48 H48       -10.8505   -0.6149   61.3021 H       1  ZINC000646817380    0.0600
     49 H49       -11.0531    0.5545   62.6286 H       1  ZINC000646817380    0.0500
     50 H50        -8.8910    0.7798   63.5918 H       1  ZINC000646817380    0.0600
     51 H51        -8.5475   -0.7519   62.7528 H       1  ZINC000646817380    0.0500
     52 H52        -7.4287    0.6226   62.5893 H       1  ZINC000646817380    0.0600
     53 H53        -8.2995   -0.7688   57.7873 H       1  ZINC000646817380    0.0900
     54 H54        -9.7558    0.1916   57.3849 H       1  ZINC000646817380    0.1000
@<TRIPOS>BOND
     1     1     2    1
     2     1    28    1
     3     1    29    1
     4     1    30    1
     5     2     3    1
     6     2     4    1
     7     2    31    1
     8     3    32    1
     9     3    33    1
    10     3    34    1
    11     4    27    1
    12     4     5    2
    13     5     6    1
    14     5    35    1
    15     6     7    1
    16     6    26    2
    17     7     8   am
    18     7    36    1
    19     8     9    2
    20     8    10    1
    21    10    11    2
    22    10    12   am
    23    12    25    1
    24    12    13    1
    25    13    14    1
    26    13    37    1
    27    13    38    1
    28    14    15    1
    29    14    39    1
    30    14    40    1
    31    15    16    1
    32    15    17    1
    33    15    25    1
    34    17    18    1
    35    17    22    1
    36    17    19    1
    37    19    20    1
    38    19    41    1
    39    19    42    1
    40    20    21    1
    41    20    43    1
    42    20    44    1
    43    21    22    1
    44    21    45    1
    45    21    46    1
    46    22    23    1
    47    22    24    1
    48    23    47    1
    49    23    48    1
    50    23    49    1
    51    24    50    1
    52    24    51    1
    53    24    52    1
    54    25    53    1
    55    25    54    1
    56    26    27    1
@<TRIPOS>SUBSTRUCTURE
     1 ZINC000646817380        1 TEMP              0 ****  ****    0 ROOT


##########                                Name:    ZINC000790205345
##########                DOCK_Rotatable_Bonds:                   7
##########                         Heavy_Atoms:                  28
##########                    Molecular_Weight:             382.459
##########                DOCK_Rotatable_Bonds:                   7
##########                       Formal_Charge:          -0.0299997
##########                     HBond_Acceptors:                   6
##########                        HBond_Donors:                   0
##########                         Heavy_Atoms:                  28
##########                          Grid_Score:          -32.072342
##########                     Grid_vdw_energy:          -29.569086
##########                      Grid_es_energy:           -2.503254
##########           Internal_energy_repulsive:           54.563911

@<TRIPOS>MOLECULE
ZINC000790205345
 54 56 1 0 0
SMALL
USER_CHARGES


@<TRIPOS>ATOM
      1 C1         -7.8059    0.3063   51.2870 C.3     1  ZINC000790205345   -0.1100
      2 C2         -8.2265    0.5637   52.7111 C.ar    1  ZINC000790205345   -0.1300
      3 C3         -7.3142    1.0667   53.6198 C.ar    1  ZINC000790205345   -0.0800
      4 C4         -7.6973    1.3040   54.9259 C.ar    1  ZINC000790205345   -0.2100
      5 C5         -8.9987    1.0371   55.3250 C.ar    1  ZINC000790205345    0.1300
      6 O6         -9.3783    1.2702   56.6090 O.3     1  ZINC000790205345   -0.2900
      7 C7         -8.6193    0.6292   57.6362 C.3     1  ZINC000790205345    0.0400
      8 C8         -9.3943   -0.5459   58.1743 C.2     1  ZINC000790205345    0.5200
      9 O9        -10.2649   -1.0572   57.5022 O.2     1  ZINC000790205345   -0.5100
     10 N10        -9.1201   -1.0288   59.4023 N.am    1  ZINC000790205345   -0.6100
     11 C11        -8.0698   -0.4099   60.2149 C.3     1  ZINC000790205345    0.0700
     12 C12        -9.8722   -2.1722   59.9247 C.3     1  ZINC000790205345    0.1800
     13 H13        -9.6343   -2.3125   60.9792 H       1  ZINC000790205345    0.1200
     14 C14        -9.4923   -3.4321   59.1442 C.3     1  ZINC000790205345   -0.1600
     15 C15       -11.3491   -1.9136   59.7731 C.ar    1  ZINC000790205345   -0.0700
     16 C16       -12.0980   -2.6792   58.8987 C.ar    1  ZINC000790205345   -0.1300
     17 C17       -13.4536   -2.4446   58.7564 C.ar    1  ZINC000790205345   -0.0900
     18 C18       -14.0633   -1.4448   59.4882 C.ar    1  ZINC000790205345   -0.1500
     19 C19       -13.3139   -0.6744   60.3677 C.ar    1  ZINC000790205345    0.1800
     20 N20       -13.9290    0.3395   61.1111 N.am    1  ZINC000790205345   -0.5700
     21 C21       -13.2562    1.2181   62.0800 C.3     1  ZINC000790205345    0.0600
     22 C22       -14.3860    2.1313   62.5935 C.3     1  ZINC000790205345    0.0400
     23 O23       -15.5647    1.6763   61.8679 O.3     1  ZINC000790205345   -0.3200
     24 C24       -15.2259    0.6719   61.0518 C.2     1  ZINC000790205345    0.6400
     25 O25       -16.0228    0.1070   60.3290 O.2     1  ZINC000790205345   -0.5000
     26 C26       -11.9542   -0.9157   60.5121 C.ar    1  ZINC000790205345   -0.1400
     27 C27        -9.9126    0.5324   54.4110 C.ar    1  ZINC000790205345   -0.1500
     28 C28        -9.5259    0.3019   53.1052 C.ar    1  ZINC000790205345   -0.0500
     29 C29       -10.5179   -0.2459   52.1117 C.3     1  ZINC000790205345   -0.1200
     30 H30        -7.9745    1.2030   50.6907 H       1  ZINC000790205345    0.0700
     31 H31        -6.7475    0.0469   51.2620 H       1  ZINC000790205345    0.0600
     32 H32        -8.3915   -0.5172   50.8785 H       1  ZINC000790205345    0.0700
     33 H33        -6.3009    1.2739   53.3087 H       1  ZINC000790205345    0.1300
     34 H34        -6.9841    1.6965   55.6356 H       1  ZINC000790205345    0.1300
     35 H35        -7.6716    0.2818   57.2247 H       1  ZINC000790205345    0.1000
     36 H36        -8.4276    1.3377   58.4421 H       1  ZINC000790205345    0.0900
     37 H37        -8.4801    0.4485   60.7466 H       1  ZINC000790205345    0.0600
     38 H38        -7.6919   -1.1363   60.9344 H       1  ZINC000790205345    0.0800
     39 H39        -7.2560   -0.0818   59.5683 H       1  ZINC000790205345    0.0700
     40 H40        -9.7302   -3.2919   58.0897 H       1  ZINC000790205345    0.0600
     41 H41        -8.4241   -3.6192   59.2539 H       1  ZINC000790205345    0.0700
     42 H42       -10.0520   -4.2829   59.5329 H       1  ZINC000790205345    0.0800
     43 H43       -11.6235   -3.4617   58.3253 H       1  ZINC000790205345    0.1300
     44 H44       -14.0358   -3.0438   58.0721 H       1  ZINC000790205345    0.1300
     45 H45       -15.1219   -1.2619   59.3763 H       1  ZINC000790205345    0.1300
     46 H46       -12.8343    0.6341   62.8978 H       1  ZINC000790205345    0.1000
     47 H47       -12.4813    1.8069   61.5891 H       1  ZINC000790205345    0.1000
     48 H48       -14.5244    2.0013   63.6669 H       1  ZINC000790205345    0.1100
     49 H49       -14.1714    3.1738   62.3585 H       1  ZINC000790205345    0.1100
     50 H50       -11.3687   -0.3185   61.1955 H       1  ZINC000790205345    0.1600
     51 H51       -10.9263    0.3236   54.7193 H       1  ZINC000790205345    0.1300
     52 H52       -11.0343    0.5793   51.6212 H       1  ZINC000790205345    0.0700
     53 H53        -9.9931   -0.8415   51.3648 H       1  ZINC000790205345    0.0700
     54 H54       -11.2441   -0.8716   52.6307 H       1  ZINC000790205345    0.0700
@<TRIPOS>BOND
     1     1     2    1
     2     1    30    1
     3     1    31    1
     4     1    32    1
     5     2    28   ar
     6     2     3   ar
     7     3     4   ar
     8     3    33    1
     9     4     5   ar
    10     4    34    1
    11     5     6    1
    12     5    27   ar
    13     6     7    1
    14     7     8    1
    15     7    35    1
    16     7    36    1
    17     8     9    2
    18     8    10   am
    19    10    11    1
    20    10    12    1
    21    11    37    1
    22    11    38    1
    23    11    39    1
    24    12    13    1
    25    12    14    1
    26    12    15    1
    27    14    40    1
    28    14    41    1
    29    14    42    1
    30    15    26   ar
    31    15    16   ar
    32    16    17   ar
    33    16    43    1
    34    17    18   ar
    35    17    44    1
    36    18    19   ar
    37    18    45    1
    38    19    20    1
    39    19    26   ar
    40    20    24   am
    41    20    21    1
    42    21    22    1
    43    21    46    1
    44    21    47    1
    45    22    23    1
    46    22    48    1
    47    22    49    1
    48    23    24    1
    49    24    25    2
    50    26    50    1
    51    27    28   ar
    52    27    51    1
    53    28    29    1
    54    29    52    1
    55    29    53    1
    56    29    54    1
@<TRIPOS>SUBSTRUCTURE
     1 ZINC000790205345        1 TEMP              0 ****  ****    0 ROOT


##########                                Name:    ZINC001342153661
##########                DOCK_Rotatable_Bonds:                   8
##########                         Heavy_Atoms:                  29
##########                    Molecular_Weight:             395.548
##########                DOCK_Rotatable_Bonds:                   8
##########                       Formal_Charge:          -0.0400005
##########                     HBond_Acceptors:                   6
##########                        HBond_Donors:                   1
##########                         Heavy_Atoms:                  29
##########                          Grid_Score:          -32.058815
##########                     Grid_vdw_energy:          -31.430941
##########                      Grid_es_energy:           -0.627875
##########           Internal_energy_repulsive:           28.101942

@<TRIPOS>MOLECULE
ZINC001342153661
 62 65 1 0 0
SMALL
USER_CHARGES


@<TRIPOS>ATOM
      1 C1        -10.6512   -2.6538   59.9865 C.2     1  ZINC001342153661   -0.1400
      2 C2         -9.9077   -2.3913   58.9403 C.2     1  ZINC001342153661   -0.1600
      3 C3         -8.6082   -1.6468   59.1072 C.3     1  ZINC001342153661   -0.1200
      4 C4        -10.3521   -2.8337   57.5700 C.3     1  ZINC001342153661    0.1500
      5 N5        -11.3663   -1.9064   57.0624 N.pl3   1  ZINC001342153661   -0.4700
      6 C6        -12.7243   -2.0553   57.1212 C.2     1  ZINC001342153661    0.1800
      7 C7        -13.4701   -3.2163   57.7268 C.3     1  ZINC001342153661   -0.0600
      8 C8        -14.8047   -3.3996   57.0014 C.3     1  ZINC001342153661    0.1600
      9 H9        -14.6349   -3.4066   55.9247 H       1  ZINC001342153661    0.1000
     10 O10       -15.3964   -4.6383   57.3983 O.3     1  ZINC001342153661   -0.5400
     11 C11       -15.7297   -2.2642   57.3568 C.ar    1  ZINC001342153661   -0.1700
     12 C12       -16.6889   -1.8317   56.4543 C.ar    1  ZINC001342153661   -0.0600
     13 C13       -17.5185   -0.7840   56.8245 C.ar    1  ZINC001342153661   -0.1700
     14 C14       -17.3626   -0.2100   58.0718 C.ar    1  ZINC001342153661    0.1000
     15 N15       -16.4388   -0.6477   58.9052 N.ar    1  ZINC001342153661   -0.4800
     16 C16       -15.6362   -1.6449   58.5890 C.ar    1  ZINC001342153661    0.1100
     17 N17       -13.2539   -1.0069   56.5573 N.2     1  ZINC001342153661   -0.2700
     18 N18       -12.3301   -0.2119   56.1494 N.2     1  ZINC001342153661   -0.3200
     19 C19       -11.1519   -0.7122   56.4380 C.2     1  ZINC001342153661    0.3600
     20 N20        -9.9220   -0.1401   56.1545 N.3     1  ZINC001342153661   -0.4500
     21 C21        -9.7292    1.0989   56.9189 C.3     1  ZINC001342153661    0.0500
     22 C22        -8.3093    1.6234   56.6931 C.3     1  ZINC001342153661   -0.1200
     23 C23        -8.0987    1.8853   55.1993 C.3     1  ZINC001342153661   -0.1200
     24 C24        -8.3527    0.5910   54.4215 C.3     1  ZINC001342153661   -0.0800
     25 H25        -7.6325   -0.1665   54.7304 H       1  ZINC001342153661    0.0800
     26 C26        -8.2020    0.8581   52.9225 C.3     1  ZINC001342153661   -0.0800
     27 C27        -6.7979    1.4340   52.6130 C.3     1  ZINC001342153661   -0.1200
     28 C28        -6.6009    1.0710   51.1201 C.3     1  ZINC001342153661   -0.1300
     29 C29        -7.2331   -0.3297   50.9849 C.3     1  ZINC001342153661   -0.1300
     30 C30        -8.2510   -0.4651   52.1309 C.3     1  ZINC001342153661   -0.1200
     31 C31        -9.7714    0.0964   54.7131 C.3     1  ZINC001342153661    0.0800
     32 H32       -10.3328   -2.3368   60.9685 H       1  ZINC001342153661    0.1000
     33 H33       -11.5847   -3.1835   59.8663 H       1  ZINC001342153661    0.1100
     34 H34        -7.8154   -2.3514   59.3581 H       1  ZINC001342153661    0.0700
     35 H35        -8.3597   -1.1364   58.1767 H       1  ZINC001342153661    0.0600
     36 H36        -8.7094   -0.9138   59.9076 H       1  ZINC001342153661    0.0700
     37 H37        -9.4961   -2.8409   56.8951 H       1  ZINC001342153661    0.1000
     38 H38       -10.7748   -3.8365   57.6312 H       1  ZINC001342153661    0.1000
     39 H39       -12.8741   -4.1235   57.6258 H       1  ZINC001342153661    0.1100
     40 H40       -13.6546   -3.0188   58.7828 H       1  ZINC001342153661    0.1000
     41 H41       -16.2569   -4.8110   56.9925 H       1  ZINC001342153661    0.3800
     42 H42       -16.7875   -2.2992   55.4857 H       1  ZINC001342153661    0.1300
     43 H43       -18.2766   -0.4209   56.1464 H       1  ZINC001342153661    0.1400
     44 H44       -18.0046    0.6065   58.3675 H       1  ZINC001342153661    0.1600
     45 H45       -14.8914   -1.9759   59.2976 H       1  ZINC001342153661    0.1500
     46 H46       -10.4496    1.8465   56.5867 H       1  ZINC001342153661    0.0500
     47 H47        -9.8777    0.8979   57.9799 H       1  ZINC001342153661    0.0700
     48 H48        -8.1717    2.5514   57.2482 H       1  ZINC001342153661    0.0800
     49 H49        -7.5884    0.8821   57.0379 H       1  ZINC001342153661    0.0700
     50 H50        -8.7935    2.6548   54.8628 H       1  ZINC001342153661    0.0600
     51 H51        -7.0748    2.2178   55.0286 H       1  ZINC001342153661    0.0700
     52 H52        -8.9803    1.5384   52.5770 H       1  ZINC001342153661    0.0800
     53 H53        -6.7844    2.5150   52.7526 H       1  ZINC001342153661    0.0700
     54 H54        -6.0387    0.9541   53.2306 H       1  ZINC001342153661    0.0700
     55 H55        -7.1193    1.7867   50.4819 H       1  ZINC001342153661    0.0600
     56 H56        -5.5400    1.0363   50.8727 H       1  ZINC001342153661    0.0600
     57 H57        -7.7389   -0.4198   50.0236 H       1  ZINC001342153661    0.0600
     58 H58        -6.4640   -1.0967   51.0760 H       1  ZINC001342153661    0.0600
     59 H59        -7.9760   -1.2979   52.7781 H       1  ZINC001342153661    0.0600
     60 H60        -9.2508   -0.6210   51.7257 H       1  ZINC001342153661    0.0600
     61 H61        -9.9504   -0.8326   54.1719 H       1  ZINC001342153661    0.0900
     62 H62       -10.4915    0.8487   54.3912 H       1  ZINC001342153661    0.0500
@<TRIPOS>BOND
     1     1     2    2
     2     1    32    1
     3     1    33    1
     4     2     3    1
     5     2     4    1
     6     3    34    1
     7     3    35    1
     8     3    36    1
     9     4     5    1
    10     4    37    1
    11     4    38    1
    12     5    19    1
    13     5     6    1
    14     6     7    1
    15     6    17    2
    16     7     8    1
    17     7    39    1
    18     7    40    1
    19     8     9    1
    20     8    10    1
    21     8    11    1
    22    10    41    1
    23    11    16   ar
    24    11    12   ar
    25    12    13   ar
    26    12    42    1
    27    13    14   ar
    28    13    43    1
    29    14    15   ar
    30    14    44    1
    31    15    16   ar
    32    16    45    1
    33    17    18    1
    34    18    19    2
    35    19    20    1
    36    20    31    1
    37    20    21    1
    38    21    22    1
    39    21    46    1
    40    21    47    1
    41    22    23    1
    42    22    48    1
    43    22    49    1
    44    23    24    1
    45    23    50    1
    46    23    51    1
    47    24    25    1
    48    24    26    1
    49    24    31    1
    50    26    30    1
    51    26    27    1
    52    26    52    1
    53    27    28    1
    54    27    53    1
    55    27    54    1
    56    28    29    1
    57    28    55    1
    58    28    56    1
    59    29    30    1
    60    29    57    1
    61    29    58    1
    62    30    59    1
    63    30    60    1
    64    31    61    1
    65    31    62    1
@<TRIPOS>SUBSTRUCTURE
     1 ZINC001342153661        1 TEMP              0 ****  ****    0 ROOT


##########                                Name:    ZINC000011972961
##########                DOCK_Rotatable_Bonds:                   6
##########                         Heavy_Atoms:                  28
##########                    Molecular_Weight:             397.501
##########                DOCK_Rotatable_Bonds:                   6
##########                       Formal_Charge:                   0
##########                     HBond_Acceptors:                   8
##########                        HBond_Donors:                   1
##########                         Heavy_Atoms:                  28
##########                          Grid_Score:          -32.058758
##########                     Grid_vdw_energy:          -32.058758
##########                      Grid_es_energy:            0.000000
##########           Internal_energy_repulsive:           30.071060

@<TRIPOS>MOLECULE
ZINC000011972961
 51 54 1 0 0
SMALL
USER_CHARGES


@<TRIPOS>ATOM
      1 C1         -9.9261    0.4215   53.5858 C.3        0e
      0.0000
      2 C2         -8.9044    1.2689   54.2993 C.2        0e
      0.0000
      3 C3         -8.3211    2.3251   53.7185 C.2        0e
      0.0000
      4 C4         -8.5932    2.7818   52.3502 C.2        0e
      0.0000
      5 O5         -9.6600    3.3027   52.0835 O.2        0e
      0.0000
      6 N6         -7.6615    2.6240   51.3893 N.am       0e
      0.0000
      7 C7         -7.9331    3.0798   50.0236 C.3        0e
      0.0000
      8 C8         -6.3770    1.9968   51.7103 C.3        0e
      0.0000
      9 H9         -6.4631    1.3944   52.6146 H          0e
      0.0000
     10 C10        -5.8867    1.1290   50.5257 C.3        0e
      0.0000
     11 C11        -4.8938    2.0827   49.8137 C.3        0e
      0.0000
     12 O12        -4.2576    2.7823   50.9047 O.3        0e
      0.0000
     13 C13        -5.2810    3.0671   51.8774 C.3        0e
      0.0000
     14 S14        -7.1866    3.0886   54.8190 S.3        0e
      0.0000
     15 C15        -7.5449    1.9165   56.0801 C.ar       0e
      0.0000
     16 N16        -7.0697    1.7841   57.3236 N.ar       0e
      0.0000
     17 C17        -7.4856    0.8170   58.1089 C.ar       0e
      0.0000
     18 N18        -8.3850   -0.0681   57.7196 N.ar       0e
      0.0000
     19 C19        -8.9156   -0.0220   56.5071 C.ar       0e
      0.0000
     20 N20        -9.8546   -0.9552   56.1168 N.pl3      0e
      0.0000
     21 C21       -10.4231   -1.8785   57.1019 C.3        0e
      0.0000
     22 C22       -11.8722   -2.1318   56.7752 C.ar       0e
      0.0000
     23 N23       -12.4007   -3.3128   57.0291 N.ar       0e
      0.0000
     24 C24       -13.6641   -3.5795   56.7605 C.ar       0e
      0.0000
     25 C25       -14.2190   -4.9459   57.0704 C.3        0e
      0.0000
     26 C26       -14.4849   -2.6204   56.1986 C.ar       0e
      0.0000
     27 C27       -13.9645   -1.3662   55.9174 C.ar       0e
      0.0000
     28 C28       -12.6335   -1.1216   56.2180 C.ar       0e
      0.0000
     29 C29        -8.5061    1.0086   55.6146 C.ar       0e
      0.0000
     30 H30       -10.9041    0.5685   54.0443 H          0e
      0.0000
     31 H31        -9.9696    0.7116   52.5360 H          0e
      0.0000
     32 H32        -9.6437   -0.6286   53.6612 H          0e
      0.0000
     33 H33        -8.0278    4.1655   50.0151 H          0e
      0.0000
     34 H34        -7.1126    2.7813   49.3711 H          0e
      0.0000
     35 H35        -8.8611    2.6313   49.6688 H          0e
      0.0000
     36 H36        -5.3776    0.2341   50.8837 H          0e
      0.0000
     37 H37        -6.7145    0.8667   49.8668 H          0e
      0.0000
     38 H38        -4.1598    1.5152   49.2416 H          0e
      0.0000
     39 H39        -5.4276    2.7811   49.1692 H          0e
      0.0000
     40 H40        -5.6994    4.0571   51.6962 H          0e
      0.0000
     41 H41        -4.8613    3.0182   52.8823 H          0e
      0.0000
     42 H42        -7.0780    0.7427   59.1062 H          0e
      0.0000
     43 H43       -10.1381   -0.9997   55.1902 H          0e
      0.0000
     44 H44        -9.8748   -2.8203   57.0760 H          0e
      0.0000
     45 H45       -10.3461   -1.4406   58.0971 H          0e
      0.0000
     46 H46       -14.6202   -4.9539   58.0838 H          0e
      0.0000
     47 H47       -15.0134   -5.1844   56.3633 H          0e
      0.0000
     48 H48       -13.4247   -5.6878   56.9884 H          0e
      0.0000
     49 H49       -15.5187   -2.8448   55.9810 H          0e
      0.0000
     50 H50       -14.5825   -0.5970   55.4781 H          0e
      0.0000
     51 H51       -12.1951   -0.1561   56.0129 H          0e
      0.0000
@<TRIPOS>BOND
     1     1     2    1
     2     1    30    1
     3     1    31    1
     4     1    32    1
     5     2    29    1
     6     2     3    2
     7     3     4    1
     8     3    14    1
     9     4     5    2
    10     4     6   am
    11     6     7    1
    12     6     8    1
    13     7    33    1
    14     7    34    1
    15     7    35    1
    16     8     9    1
    17     8    13    1
    18     8    10    1
    19    10    11    1
    20    10    36    1
    21    10    37    1
    22    11    12    1
    23    11    38    1
    24    11    39    1
    25    12    13    1
    26    13    40    1
    27    13    41    1
    28    14    15    1
    29    15    29   ar
    30    15    16   ar
    31    16    17   ar
    32    17    18   ar
    33    17    42    1
    34    18    19   ar
    35    19    20    1
    36    19    29   ar
    37    20    21    1
    38    20    43    1
    39    21    22    1
    40    21    44    1
    41    21    45    1
    42    22    28   ar
    43    22    23   ar
    44    23    24   ar
    45    24    25    1
    46    24    26   ar
    47    25    46    1
    48    25    47    1
    49    25    48    1
    50    26    27   ar
    51    26    49    1
    52    27    28   ar
    53    27    50    1
    54    28    51    1
@<TRIPOS>SUBSTRUCTURE
     1 0e
        1 TEMP              0 ****  ****    0 ROOT


##########                                Name:    ZINC000460972051
##########                DOCK_Rotatable_Bonds:                  10
##########                         Heavy_Atoms:                  29
##########                    Molecular_Weight:             417.572
##########                DOCK_Rotatable_Bonds:                  10
##########                       Formal_Charge:         3.31551e-07
##########                     HBond_Acceptors:                   7
##########                        HBond_Donors:                   2
##########                         Heavy_Atoms:                  29
##########                          Grid_Score:          -32.045914
##########                     Grid_vdw_energy:          -31.313297
##########                      Grid_es_energy:           -0.732615
##########           Internal_energy_repulsive:           42.807838

@<TRIPOS>MOLECULE
ZINC000460972051
 60 61 1 0 0
SMALL
USER_CHARGES


@<TRIPOS>ATOM
      1 C1        -15.4705   -0.9710   55.2944 C.3     1  ZINC000460972051   -0.1800
      2 C2        -14.3323   -0.5496   56.2260 C.3     1  ZINC000460972051    0.1000
      3 N3        -13.7932   -1.7313   56.9038 N.am    1  ZINC000460972051   -0.6200
      4 C4        -12.4663   -1.9671   56.8940 C.2     1  ZINC000460972051    0.7100
      5 O5        -12.0189   -2.9471   57.4578 O.2     1  ZINC000460972051   -0.5800
      6 N6        -11.6354   -1.1167   56.2593 N.am    1  ZINC000460972051   -0.7400
      7 C7        -10.1932   -1.3739   56.2472 C.3     1  ZINC000460972051    0.2000
      8 H8        -10.0142   -2.4295   56.0425 H       1  ZINC000460972051    0.1100
      9 C9         -9.5327   -0.5243   55.1596 C.3     1  ZINC000460972051    0.1100
     10 N10       -10.5427    0.3242   54.5222 N.am    1  ZINC000460972051   -1.1200
     11 S11       -10.7402    0.2838   52.8785 S.o2    1  ZINC000460972051    2.7000
     12 O12       -10.9404   -1.0796   52.5318 O.2     1  ZINC000460972051   -0.9500
     13 O13       -11.6693    1.3110   52.5607 O.2     1  ZINC000460972051   -0.9600
     14 C14        -9.2052    0.7607   52.1568 C.ar    1  ZINC000460972051   -0.6900
     15 C15        -8.4209   -0.1799   51.5163 C.ar    1  ZINC000460972051   -0.0100
     16 C16        -7.2164    0.1944   50.9500 C.ar    1  ZINC000460972051   -0.1500
     17 C17        -6.7969    1.5092   51.0239 C.ar    1  ZINC000460972051   -0.0200
     18 C18        -5.4838    1.9170   50.4071 C.3     1  ZINC000460972051   -0.1300
     19 C19        -7.5821    2.4504   51.6634 C.ar    1  ZINC000460972051   -0.1500
     20 C20        -8.7880    2.0770   52.2263 C.ar    1  ZINC000460972051    0.0300
     21 C21        -9.6440    3.1029   52.9233 C.3     1  ZINC000460972051   -0.1700
     22 C22        -9.6078   -1.0161   57.5889 C.ar    1  ZINC000460972051   -0.1000
     23 C23        -9.5783    0.3032   58.0005 C.ar    1  ZINC000460972051   -0.1000
     24 C24        -9.0414    0.6315   59.2313 C.ar    1  ZINC000460972051   -0.1200
     25 C25        -8.5343   -0.3596   60.0507 C.ar    1  ZINC000460972051   -0.1200
     26 C26        -8.5646   -1.6791   59.6395 C.ar    1  ZINC000460972051   -0.1200
     27 C27        -9.1055   -2.0078   58.4105 C.ar    1  ZINC000460972051   -0.1000
     28 C28       -14.6966   -2.6566   57.5921 C.3     1  ZINC000460972051    0.1500
     29 C29       -14.5831   -4.0453   56.9599 C.3     1  ZINC000460972051   -0.1600
     30 C30       -14.3144   -2.7370   59.0714 C.3     1  ZINC000460972051   -0.1600
     31 H31       -15.8715   -0.0918   54.7900 H       1  ZINC000460972051    0.0700
     32 H32       -15.0915   -1.6740   54.5526 H       1  ZINC000460972051    0.0600
     33 H33       -16.2592   -1.4472   55.8767 H       1  ZINC000460972051    0.0700
     34 H34       -13.5434   -0.0734   55.6436 H       1  ZINC000460972051    0.0700
     35 H35       -14.7112    0.1535   56.9678 H       1  ZINC000460972051    0.0900
     36 H36       -11.9923   -0.3343   55.8105 H       1  ZINC000460972051    0.4000
     37 H37        -8.7613    0.1026   55.6068 H       1  ZINC000460972051    0.0900
     38 H38        -9.0823   -1.1772   54.4120 H       1  ZINC000460972051    0.0900
     39 H39       -11.0957    0.9096   55.0629 H       1  ZINC000460972051    0.4200
     40 H40        -8.7486   -1.2074   51.4585 H       1  ZINC000460972051    0.1400
     41 H41        -6.6031   -0.5408   50.4501 H       1  ZINC000460972051    0.1300
     42 H42        -5.6465    2.2181   49.3722 H       1  ZINC000460972051    0.0800
     43 H43        -5.0634    2.7525   50.9668 H       1  ZINC000460972051    0.0700
     44 H44        -4.7918    1.0754   50.4361 H       1  ZINC000460972051    0.0700
     45 H45        -7.2546    3.4779   51.7209 H       1  ZINC000460972051    0.1300
     46 H46       -10.3990    3.4765   52.2317 H       1  ZINC000460972051    0.0900
     47 H47       -10.1334    2.6445   53.7826 H       1  ZINC000460972051    0.1000
     48 H48        -9.0186    3.9299   53.2598 H       1  ZINC000460972051    0.0900
     49 H49        -9.9745    1.0776   57.3603 H       1  ZINC000460972051    0.1200
     50 H50        -9.0176    1.6623   59.5524 H       1  ZINC000460972051    0.1200
     51 H51        -8.1141   -0.1031   61.0120 H       1  ZINC000460972051    0.1200
     52 H52        -8.1682   -2.4535   60.2795 H       1  ZINC000460972051    0.1200
     53 H53        -9.1292   -3.0387   58.0893 H       1  ZINC000460972051    0.1200
     54 H54       -15.7221   -2.2987   57.5008 H       1  ZINC000460972051    0.1000
     55 H55       -14.8554   -3.9882   55.9060 H       1  ZINC000460972051    0.0600
     56 H56       -13.5576   -4.4033   57.0512 H       1  ZINC000460972051    0.0600
     57 H57       -15.2552   -4.7338   57.4721 H       1  ZINC000460972051    0.0700
     58 H58       -14.3952   -1.7478   59.5218 H       1  ZINC000460972051    0.0600
     59 H59       -14.9865   -3.4255   59.5836 H       1  ZINC000460972051    0.0700
     60 H60       -13.2889   -3.0951   59.1627 H       1  ZINC000460972051    0.0600
@<TRIPOS>BOND
     1     1     2    1
     2     1    31    1
     3     1    32    1
     4     1    33    1
     5     2     3    1
     6     2    34    1
     7     2    35    1
     8     3     4   am
     9     3    28    1
    10     4     5    2
    11     4     6   am
    12     6     7    1
    13     6    36    1
    14     7     8    1
    15     7     9    1
    16     7    22    1
    17     9    10    1
    18     9    37    1
    19     9    38    1
    20    10    11   am
    21    10    39    1
    22    11    12    2
    23    11    13    2
    24    11    14    1
    25    14    20   ar
    26    14    15   ar
    27    15    16   ar
    28    15    40    1
    29    16    17   ar
    30    16    41    1
    31    17    18    1
    32    17    19   ar
    33    18    42    1
    34    18    43    1
    35    18    44    1
    36    19    20   ar
    37    19    45    1
    38    20    21    1
    39    21    46    1
    40    21    47    1
    41    21    48    1
    42    22    27   ar
    43    22    23   ar
    44    23    24   ar
    45    23    49    1
    46    24    25   ar
    47    24    50    1
    48    25    26   ar
    49    25    51    1
    50    26    27   ar
    51    26    52    1
    52    27    53    1
    53    28    29    1
    54    28    30    1
    55    28    54    1
    56    29    55    1
    57    29    56    1
    58    29    57    1
    59    30    58    1
    60    30    59    1
    61    30    60    1
@<TRIPOS>SUBSTRUCTURE
     1 ZINC000460972051        1 TEMP              0 ****  ****    0 ROOT


##########                                Name:    ZINC000655982608
##########                DOCK_Rotatable_Bonds:                   5
##########                         Heavy_Atoms:                  29
##########                    Molecular_Weight:             388.469
##########                DOCK_Rotatable_Bonds:                   5
##########                       Formal_Charge:          -0.0200006
##########                     HBond_Acceptors:                   6
##########                        HBond_Donors:                   0
##########                         Heavy_Atoms:                  29
##########                          Grid_Score:          -32.023788
##########                     Grid_vdw_energy:          -32.378117
##########                      Grid_es_energy:            0.354328
##########           Internal_energy_repulsive:           23.034239

@<TRIPOS>MOLECULE
ZINC000655982608
 53 57 1 0 0
SMALL
USER_CHARGES


@<TRIPOS>ATOM
      1 C1         -8.5305    0.3225   53.9410 C.3     1  ZINC000655982608   -0.1900
      2 C2         -9.3527   -0.0735   52.7129 C.3     1  ZINC000655982608    0.0800
      3 H3         -8.9313   -0.9753   52.2689 H       1  ZINC000655982608    0.1000
      4 C4        -10.7998   -0.3396   53.1323 C.3     1  ZINC000655982608   -0.0300
      5 C5        -10.8156   -1.2523   54.3314 C.2     1  ZINC000655982608    0.2000
      6 N6        -11.4187   -1.0297   55.4743 N.2     1  ZINC000655982608   -0.4800
      7 C7        -11.1603   -2.1077   56.2359 C.2     1  ZINC000655982608    0.1700
      8 C8        -11.6347   -2.3365   57.6479 C.3     1  ZINC000655982608   -0.0100
      9 H9        -12.4824   -3.0215   57.6663 H       1  ZINC000655982608    0.1300
     10 C10       -10.4841   -2.8559   58.5408 C.3     1  ZINC000655982608   -0.1400
     11 C11       -10.7210   -2.1878   59.8773 C.2     1  ZINC000655982608    0.5200
     12 O12       -10.2175   -2.5327   60.9253 O.2     1  ZINC000655982608   -0.5000
     13 N13       -11.5705   -1.1559   59.7340 N.am    1  ZINC000655982608   -0.5600
     14 C14       -12.0011   -0.3364   60.7832 C.ar    1  ZINC000655982608    0.1600
     15 C15       -11.0801    0.4114   61.5052 C.ar    1  ZINC000655982608   -0.1600
     16 C16       -11.5082    1.2192   62.5403 C.ar    1  ZINC000655982608   -0.0900
     17 C17       -12.8524    1.2836   62.8585 C.ar    1  ZINC000655982608   -0.1400
     18 C18       -13.7720    0.5400   62.1420 C.ar    1  ZINC000655982608   -0.0900
     19 C19       -13.3510   -0.2647   61.1013 C.ar    1  ZINC000655982608   -0.1600
     20 C20       -11.9892   -0.9995   58.3355 C.3     1  ZINC000655982608    0.1100
     21 N21       -10.4270   -2.9158   55.5305 N.2     1  ZINC000655982608   -0.3700
     22 O22       -10.2223   -2.4457   54.4311 O.3     1  ZINC000655982608    0.0900
     23 N23        -9.3205    1.0174   51.7297 N.3     1  ZINC000655982608   -0.4700
     24 C24        -9.9676    2.2343   52.2666 C.3     1  ZINC000655982608    0.0300
     25 C25        -9.1874    3.3697   51.5652 C.3     1  ZINC000655982608   -0.0800
     26 C26        -7.8508    2.7223   51.2617 C.ar    1  ZINC000655982608   -0.1400
     27 C27        -6.6310    3.2623   50.9136 C.ar    1  ZINC000655982608   -0.0800
     28 C28        -5.5446    2.4349   50.6914 C.ar    1  ZINC000655982608   -0.1400
     29 C29        -5.6840    1.0654   50.8195 C.ar    1  ZINC000655982608   -0.0900
     30 C30        -6.9031    0.5199   51.1654 C.ar    1  ZINC000655982608   -0.1400
     31 C31        -8.0030    1.3463   51.3878 C.ar    1  ZINC000655982608    0.1000
     32 H32        -8.4615   -0.5264   54.6212 H       1  ZINC000655982608    0.0700
     33 H33        -7.5296    0.6194   53.6279 H       1  ZINC000655982608    0.0700
     34 H34        -9.0147    1.1566   54.4489 H       1  ZINC000655982608    0.0700
     35 H35       -11.2836    0.6033   53.3869 H       1  ZINC000655982608    0.1200
     36 H36       -11.3355   -0.8122   52.3090 H       1  ZINC000655982608    0.1100
     37 H37       -10.5387   -3.9400   58.6412 H       1  ZINC000655982608    0.1200
     38 H38        -9.5190   -2.5579   58.1311 H       1  ZINC000655982608    0.1200
     39 H39       -10.0300    0.3608   61.2576 H       1  ZINC000655982608    0.1200
     40 H40       -10.7925    1.8009   63.1021 H       1  ZINC000655982608    0.1300
     41 H41       -13.1846    1.9159   63.6686 H       1  ZINC000655982608    0.1200
     42 H42       -14.8210    0.5920   62.3933 H       1  ZINC000655982608    0.1300
     43 H43       -14.0697   -0.8453   60.5421 H       1  ZINC000655982608    0.1500
     44 H44       -11.4442   -0.1794   57.8681 H       1  ZINC000655982608    0.0900
     45 H45       -13.0628   -0.8192   58.2812 H       1  ZINC000655982608    0.1000
     46 H46       -11.0224    2.2639   51.9934 H       1  ZINC000655982608    0.1000
     47 H47        -9.8454    2.2920   53.3481 H       1  ZINC000655982608    0.0700
     48 H48        -9.6881    3.6711   50.6451 H       1  ZINC000655982608    0.0900
     49 H49        -9.0608    4.2213   52.2337 H       1  ZINC000655982608    0.0800
     50 H50        -6.5234    4.3322   50.8139 H       1  ZINC000655982608    0.1200
     51 H51        -4.5893    2.8582   50.4181 H       1  ZINC000655982608    0.1200
     52 H52        -4.8354    0.4199   50.6476 H       1  ZINC000655982608    0.1300
     53 H53        -7.0056   -0.5507   51.2635 H       1  ZINC000655982608    0.1200
@<TRIPOS>BOND
     1     1     2    1
     2     1    32    1
     3     1    33    1
     4     1    34    1
     5     2     3    1
     6     2     4    1
     7     2    23    1
     8     4     5    1
     9     4    35    1
    10     4    36    1
    11     5    22    1
    12     5     6    2
    13     6     7    1
    14     7     8    1
    15     7    21    2
    16     8     9    1
    17     8    20    1
    18     8    10    1
    19    10    11    1
    20    10    37    1
    21    10    38    1
    22    11    12    2
    23    11    13   am
    24    13    14    1
    25    13    20    1
    26    14    19   ar
    27    14    15   ar
    28    15    16   ar
    29    15    39    1
    30    16    17   ar
    31    16    40    1
    32    17    18   ar
    33    17    41    1
    34    18    19   ar
    35    18    42    1
    36    19    43    1
    37    20    44    1
    38    20    45    1
    39    21    22    1
    40    23    31    1
    41    23    24    1
    42    24    25    1
    43    24    46    1
    44    24    47    1
    45    25    26    1
    46    25    48    1
    47    25    49    1
    48    26    31   ar
    49    26    27   ar
    50    27    28   ar
    51    27    50    1
    52    28    29   ar
    53    28    51    1
    54    29    30   ar
    55    29    52    1
    56    30    31   ar
    57    30    53    1
@<TRIPOS>SUBSTRUCTURE
     1 ZINC000655982608        1 TEMP              0 ****  ****    0 ROOT


##########                                Name:    ZINC001061022329
##########                DOCK_Rotatable_Bonds:                   7
##########                         Heavy_Atoms:                  27
##########                    Molecular_Weight:             374.523
##########                DOCK_Rotatable_Bonds:                   7
##########                       Formal_Charge:           0.0800005
##########                     HBond_Acceptors:                   5
##########                        HBond_Donors:                   0
##########                         Heavy_Atoms:                  27
##########                          Grid_Score:          -32.019203
##########                     Grid_vdw_energy:          -31.639112
##########                      Grid_es_energy:           -0.380089
##########           Internal_energy_repulsive:           32.493057

@<TRIPOS>MOLECULE
ZINC001061022329
 61 64 1 0 0
SMALL
USER_CHARGES


@<TRIPOS>ATOM
      1 C1         -3.4367    4.1716   53.4700 C.3     1  ZINC001061022329   -0.1500
      2 C2         -4.9439    4.4298   53.4174 C.3     1  ZINC001061022329   -0.1200
      3 C3         -5.5283    3.7845   52.1593 C.3     1  ZINC001061022329    0.0800
      4 H4         -6.6021    3.9684   52.1219 H       1  ZINC001061022329    0.0600
      5 C5         -4.8639    4.3887   50.9206 C.3     1  ZINC001061022329   -0.1800
      6 O6         -5.2871    2.3763   52.1903 O.3     1  ZINC001061022329   -0.3500
      7 C7         -5.7957    1.6743   51.0543 C.3     1  ZINC001061022329    0.0500
      8 C8         -7.2917    1.8433   50.9878 C.2     1  ZINC001061022329    0.5200
      9 O9         -7.7831    2.5720   50.1521 O.2     1  ZINC001061022329   -0.5100
     10 N10        -8.0836    1.1846   51.8569 N.am    1  ZINC001061022329   -0.6100
     11 C11        -9.5434    1.3355   51.7962 C.3     1  ZINC001061022329    0.1100
     12 C12       -10.0493    1.7941   53.1691 C.3     1  ZINC001061022329   -0.1200
     13 C13        -9.5153    0.8466   54.2406 C.3     1  ZINC001061022329   -0.0900
     14 C14       -10.1337    1.0747   55.6268 C.3     1  ZINC001061022329    0.1200
     15 N15       -10.2030   -0.3971   55.7235 N.am    1  ZINC001061022329   -0.6400
     16 C16       -10.2435   -1.2750   56.7455 C.2     1  ZINC001061022329    0.5400
     17 O17       -10.2984   -2.4655   56.5205 O.2     1  ZINC001061022329   -0.5300
     18 C18       -10.2206   -0.7771   58.1677 C.3     1  ZINC001061022329   -0.0900
     19 H19       -10.9831   -0.0088   58.2958 H       1  ZINC001061022329    0.1000
     20 C20        -8.8438   -0.1859   58.4788 C.3     1  ZINC001061022329   -0.1000
     21 C21        -8.2053   -0.9559   59.6419 C.3     1  ZINC001061022329   -0.0600
     22 H22        -7.2013   -0.5842   59.8464 H       1  ZINC001061022329    0.0800
     23 C23        -8.1683   -2.4286   59.2615 C.2     1  ZINC001061022329   -0.1800
     24 C24        -9.3657   -2.9428   58.9909 C.2     1  ZINC001061022329   -0.1300
     25 C25       -10.5054   -1.9438   59.1222 C.3     1  ZINC001061022329   -0.0400
     26 H26       -11.4613   -2.4161   58.8962 H       1  ZINC001061022329    0.0900
     27 C27       -10.4904   -1.4057   60.5597 C.3     1  ZINC001061022329   -0.1100
     28 C28        -9.1053   -0.7998   60.8754 C.3     1  ZINC001061022329   -0.1100
     29 C29       -10.2112   -0.5216   54.2523 C.3     1  ZINC001061022329    0.1100
     30 C30        -7.9914    0.7566   54.2581 C.3     1  ZINC001061022329   -0.1100
     31 C31        -7.4994    0.3007   52.8743 C.3     1  ZINC001061022329    0.1100
     32 H32        -3.2527    3.0975   53.4937 H       1  ZINC001061022329    0.0500
     33 H33        -2.9634    4.6020   52.5876 H       1  ZINC001061022329    0.0600
     34 H34        -3.0204    4.6314   54.3663 H       1  ZINC001061022329    0.0600
     35 H35        -5.4172    3.9995   54.3000 H       1  ZINC001061022329    0.0800
     36 H36        -5.1279    5.5039   53.3938 H       1  ZINC001061022329    0.0700
     37 H37        -5.2802    3.9289   50.0243 H       1  ZINC001061022329    0.0600
     38 H38        -5.0479    5.4627   50.8970 H       1  ZINC001061022329    0.0700
     39 H39        -3.7902    4.2047   50.9580 H       1  ZINC001061022329    0.0700
     40 H40        -5.3441    2.0756   50.1470 H       1  ZINC001061022329    0.0800
     41 H41        -5.5533    0.6153   51.1431 H       1  ZINC001061022329    0.0800
     42 H42        -9.8027    2.0803   51.0438 H       1  ZINC001061022329    0.0900
     43 H43        -9.9994    0.3793   51.5394 H       1  ZINC001061022329    0.0800
     44 H44        -9.6960    2.8057   53.3684 H       1  ZINC001061022329    0.0800
     45 H45       -11.1392    1.7789   53.1796 H       1  ZINC001061022329    0.0800
     46 H46        -9.4506    1.5309   56.3433 H       1  ZINC001061022329    0.0800
     47 H47       -11.1093    1.5600   55.5985 H       1  ZINC001061022329    0.0900
     48 H48        -8.2070   -0.2654   57.5976 H       1  ZINC001061022329    0.0700
     49 H49        -8.9529    0.8631   58.7542 H       1  ZINC001061022329    0.0700
     50 H50        -7.2552   -3.0034   59.2153 H       1  ZINC001061022329    0.1200
     51 H51        -9.5144   -3.9734   58.7044 H       1  ZINC001061022329    0.1200
     52 H52       -11.2503   -0.6314   60.6654 H       1  ZINC001061022329    0.0700
     53 H53       -10.7017   -2.2189   61.2540 H       1  ZINC001061022329    0.0700
     54 H54        -8.6602   -1.3303   61.7171 H       1  ZINC001061022329    0.0700
     55 H55        -9.2194    0.2539   61.1298 H       1  ZINC001061022329    0.0700
     56 H56       -11.2099   -0.5107   53.8156 H       1  ZINC001061022329    0.0900
     57 H57        -9.5897   -1.3343   53.8763 H       1  ZINC001061022329    0.0800
     58 H58        -7.5712    1.7346   54.4928 H       1  ZINC001061022329    0.0800
     59 H59        -7.6776    0.0338   55.0113 H       1  ZINC001061022329    0.0800
     60 H60        -7.8127   -0.7279   52.6958 H       1  ZINC001061022329    0.0700
     61 H61        -6.4122    0.3662   52.8331 H       1  ZINC001061022329    0.1000
@<TRIPOS>BOND
     1     1     2    1
     2     1    32    1
     3     1    33    1
     4     1    34    1
     5     2     3    1
     6     2    35    1
     7     2    36    1
     8     3     4    1
     9     3     5    1
    10     3     6    1
    11     5    37    1
    12     5    38    1
    13     5    39    1
    14     6     7    1
    15     7     8    1
    16     7    40    1
    17     7    41    1
    18     8     9    2
    19     8    10   am
    20    10    31    1
    21    10    11    1
    22    11    12    1
    23    11    42    1
    24    11    43    1
    25    12    13    1
    26    12    44    1
    27    12    45    1
    28    13    29    1
    29    13    14    1
    30    13    30    1
    31    14    15    1
    32    14    46    1
    33    14    47    1
    34    15    16   am
    35    15    29    1
    36    16    17    2
    37    16    18    1
    38    18    19    1
    39    18    25    1
    40    18    20    1
    41    20    21    1
    42    20    48    1
    43    20    49    1
    44    21    22    1
    45    21    28    1
    46    21    23    1
    47    23    24    2
    48    23    50    1
    49    24    25    1
    50    24    51    1
    51    25    26    1
    52    25    27    1
    53    27    28    1
    54    27    52    1
    55    27    53    1
    56    28    54    1
    57    28    55    1
    58    29    56    1
    59    29    57    1
    60    30    31    1
    61    30    58    1
    62    30    59    1
    63    31    60    1
    64    31    61    1
@<TRIPOS>SUBSTRUCTURE
     1 ZINC001061022329        1 TEMP              0 ****  ****    0 ROOT


##########                                Name:    ZINC000770850676
##########                DOCK_Rotatable_Bonds:                  13
##########                         Heavy_Atoms:                  30
##########                    Molecular_Weight:             412.486
##########                DOCK_Rotatable_Bonds:                  13
##########                       Formal_Charge:          -0.0299994
##########                     HBond_Acceptors:                   7
##########                        HBond_Donors:                   3
##########                         Heavy_Atoms:                  30
##########                          Grid_Score:          -32.016487
##########                     Grid_vdw_energy:          -32.466232
##########                      Grid_es_energy:            0.449743
##########           Internal_energy_repulsive:           15.528391

@<TRIPOS>MOLECULE
ZINC000770850676
 58 60 1 0 0
SMALL
USER_CHARGES


@<TRIPOS>ATOM
      1 O1         -9.8547   -1.2348   55.3462 O.2     1  ZINC000770850676   -0.5300
      2 C2        -10.7892   -0.6289   55.8263 C.2     1  ZINC000770850676    0.5100
      3 N3        -11.2163   -0.9243   57.0700 N.am    1  ZINC000770850676   -0.7000
      4 C4        -10.5557   -1.9816   57.8395 C.3     1  ZINC000770850676    0.1600
      5 H5         -9.4748   -1.8814   57.7410 H       1  ZINC000770850676    0.1000
      6 C6        -10.9919   -3.3481   57.3074 C.3     1  ZINC000770850676    0.0600
      7 O7        -12.3480   -3.2755   56.8629 O.3     1  ZINC000770850676   -0.5700
      8 C8        -10.9468   -1.8598   59.3137 C.3     1  ZINC000770850676   -0.1500
      9 C9         -9.6837   -1.8471   60.1770 C.3     1  ZINC000770850676    0.1500
     10 H10        -9.9476   -2.0734   61.2101 H       1  ZINC000770850676    0.1100
     11 O11        -8.7662   -2.8301   59.6934 O.3     1  ZINC000770850676   -0.5400
     12 C12        -9.0425   -0.4851   60.1091 C.ar    1  ZINC000770850676   -0.1200
     13 C13        -8.0665   -0.2268   59.1647 C.ar    1  ZINC000770850676   -0.1100
     14 C14        -7.4784    1.0225   59.1023 C.ar    1  ZINC000770850676   -0.1200
     15 C15        -7.8664    2.0139   59.9840 C.ar    1  ZINC000770850676   -0.1200
     16 C16        -8.8430    1.7561   60.9278 C.ar    1  ZINC000770850676   -0.1200
     17 C17        -9.4342    0.5080   60.9874 C.ar    1  ZINC000770850676   -0.1100
     18 C18       -11.4687    0.4587   55.0348 C.3     1  ZINC000770850676    0.1400
     19 H19       -11.6765    1.3121   55.6803 H       1  ZINC000770850676    0.1000
     20 C20       -12.7847   -0.0755   54.4314 C.3     1  ZINC000770850676   -0.1200
     21 C21       -12.8205    0.5909   53.0306 C.3     1  ZINC000770850676   -0.1300
     22 C22       -11.3186    0.5973   52.6509 C.3     1  ZINC000770850676    0.1000
     23 N23       -10.6093    0.8748   53.9169 N.am    1  ZINC000770850676   -0.5900
     24 C24        -9.3801    1.4168   54.0261 C.2     1  ZINC000770850676    0.6700
     25 O25        -8.8922    1.5999   55.1238 O.2     1  ZINC000770850676   -0.5600
     26 O26        -8.6929    1.7552   52.9189 O.3     1  ZINC000770850676   -0.3600
     27 C27        -7.6377    0.8517   52.4962 C.3     1  ZINC000770850676    0.1300
     28 C28        -6.5458    1.6374   51.8171 C.ar    1  ZINC000770850676   -0.1000
     29 C29        -6.3973    1.5702   50.4443 C.ar    1  ZINC000770850676   -0.0900
     30 C30        -5.3957    2.2910   49.8213 C.ar    1  ZINC000770850676   -0.1200
     31 C31        -4.5427    3.0793   50.5710 C.ar    1  ZINC000770850676   -0.1100
     32 C32        -4.6917    3.1472   51.9436 C.ar    1  ZINC000770850676   -0.1200
     33 C33        -5.6961    2.4298   52.5662 C.ar    1  ZINC000770850676   -0.0900
     34 H34       -11.9611   -0.4371   57.4556 H       1  ZINC000770850676    0.4000
     35 H35       -10.3510   -3.6347   56.4735 H       1  ZINC000770850676    0.0500
     36 H36       -10.9090   -4.0906   58.1012 H       1  ZINC000770850676    0.0500
     37 H37       -12.9985   -3.4727   57.5507 H       1  ZINC000770850676    0.3800
     38 H38       -11.5011   -0.9339   59.4672 H       1  ZINC000770850676    0.0800
     39 H39       -11.5710   -2.7078   59.5952 H       1  ZINC000770850676    0.0900
     40 H40        -8.9610   -3.7296   59.9901 H       1  ZINC000770850676    0.3700
     41 H41        -7.7634   -1.0015   58.4758 H       1  ZINC000770850676    0.1200
     42 H42        -6.7154    1.2240   58.3649 H       1  ZINC000770850676    0.1200
     43 H43        -7.4064    2.9898   59.9358 H       1  ZINC000770850676    0.1200
     44 H44        -9.1459    2.5305   61.6169 H       1  ZINC000770850676    0.1200
     45 H45       -10.1972    0.3065   61.7247 H       1  ZINC000770850676    0.1200
     46 H46       -12.7547   -1.1614   54.3411 H       1  ZINC000770850676    0.0800
     47 H47       -13.6394    0.2393   55.0301 H       1  ZINC000770850676    0.1000
     48 H48       -13.3987   -0.0084   52.3274 H       1  ZINC000770850676    0.0900
     49 H49       -13.2125    1.6062   53.0909 H       1  ZINC000770850676    0.0800
     50 H50       -11.0234   -0.3741   52.2543 H       1  ZINC000770850676    0.0700
     51 H51       -11.1147    1.3829   51.9233 H       1  ZINC000770850676    0.0900
     52 H52        -7.2285    0.3385   53.3666 H       1  ZINC000770850676    0.0800
     53 H53        -8.0445    0.1183   51.8000 H       1  ZINC000770850676    0.0800
     54 H54        -7.0638    0.9544   49.8587 H       1  ZINC000770850676    0.1200
     55 H55        -5.2793    2.2380   48.7489 H       1  ZINC000770850676    0.1300
     56 H56        -3.7597    3.6419   50.0843 H       1  ZINC000770850676    0.1300
     57 H57        -4.0251    3.7628   52.5293 H       1  ZINC000770850676    0.1300
     58 H58        -5.8125    2.4828   53.6385 H       1  ZINC000770850676    0.1200
@<TRIPOS>BOND
     1     1     2    2
     2     2     3   am
     3     2    18    1
     4     3     4    1
     5     3    34    1
     6     4     5    1
     7     4     6    1
     8     4     8    1
     9     6     7    1
    10     6    35    1
    11     6    36    1
    12     7    37    1
    13     8     9    1
    14     8    38    1
    15     8    39    1
    16     9    10    1
    17     9    11    1
    18     9    12    1
    19    11    40    1
    20    12    17   ar
    21    12    13   ar
    22    13    14   ar
    23    13    41    1
    24    14    15   ar
    25    14    42    1
    26    15    16   ar
    27    15    43    1
    28    16    17   ar
    29    16    44    1
    30    17    45    1
    31    18    19    1
    32    18    23    1
    33    18    20    1
    34    20    21    1
    35    20    46    1
    36    20    47    1
    37    21    22    1
    38    21    48    1
    39    21    49    1
    40    22    23    1
    41    22    50    1
    42    22    51    1
    43    23    24   am
    44    24    25    2
    45    24    26    1
    46    26    27    1
    47    27    28    1
    48    27    52    1
    49    27    53    1
    50    28    33   ar
    51    28    29   ar
    52    29    30   ar
    53    29    54    1
    54    30    31   ar
    55    30    55    1
    56    31    32   ar
    57    31    56    1
    58    32    33   ar
    59    32    57    1
    60    33    58    1
@<TRIPOS>SUBSTRUCTURE
     1 ZINC000770850676        1 TEMP              0 ****  ****    0 ROOT


##########                                Name:    ZINC000508571532
##########                DOCK_Rotatable_Bonds:                   9
##########                         Heavy_Atoms:                  30
##########                    Molecular_Weight:             422.407
##########                DOCK_Rotatable_Bonds:                   9
##########                       Formal_Charge:           0.0100001
##########                     HBond_Acceptors:                  10
##########                        HBond_Donors:                   0
##########                         Heavy_Atoms:                  30
##########                          Grid_Score:          -32.015781
##########                     Grid_vdw_energy:          -31.894802
##########                      Grid_es_energy:           -0.120979
##########           Internal_energy_repulsive:           24.909384

@<TRIPOS>MOLECULE
ZINC000508571532
 51 53 1 0 0
SMALL
USER_CHARGES


@<TRIPOS>ATOM
      1 C1          1.0009    0.5233   48.5202 C.3     1  ZINC000508571532    0.0300
      2 O2         -0.3849    0.2483   48.3064 O.3     1  ZINC000508571532   -0.3200
      3 C3         -1.2786    1.0132   48.9886 C.ar    1  ZINC000508571532    0.0900
      4 C4         -2.6395    0.8020   48.8249 C.ar    1  ZINC000508571532   -0.1700
      5 C5         -3.5474    1.5789   49.5178 C.ar    1  ZINC000508571532   -0.1100
      6 C6         -3.0979    2.5700   50.3777 C.ar    1  ZINC000508571532    0.0900
      7 O7         -3.9917    3.3352   51.0595 O.3     1  ZINC000508571532   -0.3100
      8 C8         -5.3302    3.3696   50.5602 C.3     1  ZINC000508571532    0.1500
      9 C9         -6.1690    2.3607   51.3015 C.2     1  ZINC000508571532    0.1700
     10 N10        -6.1869    1.0737   51.0995 N.2     1  ZINC000508571532   -0.2500
     11 N11        -7.0152    0.5124   51.9062 N.2     1  ZINC000508571532   -0.3000
     12 C12        -7.5747    1.4187   52.6725 C.2     1  ZINC000508571532    0.3500
     13 N13        -8.5179    1.1924   53.6623 N.3     1  ZINC000508571532   -0.4600
     14 C14        -9.8055    0.7905   53.0805 C.3     1  ZINC000508571532    0.0300
     15 C15        -8.0402    0.1914   54.6256 C.3     1  ZINC000508571532    0.1100
     16 C16        -8.5203    0.5545   56.0072 C.ar    1  ZINC000508571532   -0.0900
     17 C17        -8.1285    1.7467   56.5839 C.ar    1  ZINC000508571532   -0.0600
     18 C18        -8.5682    2.0803   57.8518 C.ar    1  ZINC000508571532   -0.1300
     19 C19        -9.4013    1.2222   58.5450 C.ar    1  ZINC000508571532   -0.0700
     20 C20        -9.7966    0.0285   57.9723 C.ar    1  ZINC000508571532   -0.1900
     21 C21        -9.3611   -0.3060   56.6985 C.ar    1  ZINC000508571532    0.1100
     22 O22        -9.7484   -1.4794   56.1331 O.3     1  ZINC000508571532   -0.3100
     23 C23       -11.1480   -1.6606   55.9088 C.3     1  ZINC000508571532    0.6000
     24 F24       -11.7818   -0.4136   55.8841 F       1  ZINC000508571532   -0.1600
     25 F25       -11.3442   -2.3076   54.6840 F       1  ZINC000508571532   -0.1300
     26 F26       -11.6885   -2.4380   56.9386 F       1  ZINC000508571532   -0.1600
     27 N27        -7.0481    2.6257   52.3148 N.pl3   1  ZINC000508571532   -0.4500
     28 C28        -7.3659    3.9349   52.8902 C.3     1  ZINC000508571532    0.0800
     29 C29        -1.7370    2.7804   50.5425 C.ar    1  ZINC000508571532   -0.1700
     30 C30        -0.8291    2.0009   49.8525 C.ar    1  ZINC000508571532   -0.1100
     31 H31         1.6034   -0.1564   47.9177 H       1  ZINC000508571532    0.1000
     32 H32         1.2159    1.5522   48.2318 H       1  ZINC000508571532    0.0600
     33 H33         1.2406    0.3838   49.5744 H       1  ZINC000508571532    0.0600
     34 H34        -2.9895    0.0302   48.1553 H       1  ZINC000508571532    0.1400
     35 H35        -4.6072    1.4149   49.3898 H       1  ZINC000508571532    0.1300
     36 H36        -5.7469    4.3662   50.7062 H       1  ZINC000508571532    0.0800
     37 H37        -5.3276    3.1291   49.4971 H       1  ZINC000508571532    0.1000
     38 H38        -9.7084   -0.1974   52.6305 H       1  ZINC000508571532    0.0600
     39 H39       -10.5641    0.7607   53.8626 H       1  ZINC000508571532    0.0800
     40 H40       -10.0994    1.5104   52.3166 H       1  ZINC000508571532    0.0700
     41 H41        -8.4283   -0.7899   54.3524 H       1  ZINC000508571532    0.0700
     42 H42        -6.9506    0.1672   54.6142 H       1  ZINC000508571532    0.0900
     43 H43        -7.4776    2.4189   56.0443 H       1  ZINC000508571532    0.1400
     44 H44        -8.2601    3.0127   58.3013 H       1  ZINC000508571532    0.1300
     45 H45        -9.7432    1.4848   59.5352 H       1  ZINC000508571532    0.1400
     46 H46       -10.4472   -0.6417   58.5145 H       1  ZINC000508571532    0.1400
     47 H47        -6.6374    4.1784   53.6635 H       1  ZINC000508571532    0.0900
     48 H48        -7.3328    4.6933   52.1081 H       1  ZINC000508571532    0.0900
     49 H49        -8.3640    3.9071   53.3273 H       1  ZINC000508571532    0.1000
     50 H50        -1.3870    3.5519   51.2123 H       1  ZINC000508571532    0.1400
     51 H51         0.2307    2.1647   49.9808 H       1  ZINC000508571532    0.1400
@<TRIPOS>BOND
     1     1     2    1
     2     1    31    1
     3     1    32    1
     4     1    33    1
     5     2     3    1
     6     3    30   ar
     7     3     4   ar
     8     4     5   ar
     9     4    34    1
    10     5     6   ar
    11     5    35    1
    12     6     7    1
    13     6    29   ar
    14     7     8    1
    15     8     9    1
    16     8    36    1
    17     8    37    1
    18     9    27    1
    19     9    10    2
    20    10    11    1
    21    11    12    2
    22    12    13    1
    23    12    27    1
    24    13    14    1
    25    13    15    1
    26    14    38    1
    27    14    39    1
    28    14    40    1
    29    15    16    1
    30    15    41    1
    31    15    42    1
    32    16    21   ar
    33    16    17   ar
    34    17    18   ar
    35    17    43    1
    36    18    19   ar
    37    18    44    1
    38    19    20   ar
    39    19    45    1
    40    20    21   ar
    41    20    46    1
    42    21    22    1
    43    22    23    1
    44    23    24    1
    45    23    25    1
    46    23    26    1
    47    27    28    1
    48    28    47    1
    49    28    48    1
    50    28    49    1
    51    29    30   ar
    52    29    50    1
    53    30    51    1
@<TRIPOS>SUBSTRUCTURE
     1 ZINC000508571532        1 TEMP              0 ****  ****    0 ROOT


##########                                Name:    ZINC001207290212
##########                DOCK_Rotatable_Bonds:                   8
##########                         Heavy_Atoms:                  23
##########                    Molecular_Weight:             344.435
##########                DOCK_Rotatable_Bonds:                   8
##########                       Formal_Charge:               -0.03
##########                     HBond_Acceptors:                   9
##########                        HBond_Donors:                   2
##########                         Heavy_Atoms:                  23
##########                          Grid_Score:          -31.994217
##########                     Grid_vdw_energy:          -30.530338
##########                      Grid_es_energy:           -1.463879
##########           Internal_energy_repulsive:            5.997214

@<TRIPOS>MOLECULE
ZINC001207290212
 47 48 1 0 0
SMALL
USER_CHARGES


@<TRIPOS>ATOM
      1 C1         -9.0444    0.8151   60.8330 C.3     1  ZINC001207290212   -0.1500
      2 C2         -8.6435   -0.6177   61.1904 C.3     1  ZINC001207290212   -0.6300
      3 S3         -8.4221   -1.5809   59.6694 S.o2    1  ZINC001207290212    2.6100
      4 O4         -7.6585   -0.8477   58.7214 O.2     1  ZINC001207290212   -0.9500
      5 O5         -8.1070   -2.9322   59.9762 O.2     1  ZINC001207290212   -0.9500
      6 N6         -9.9365   -1.6558   59.0036 N.am    1  ZINC001207290212   -1.1100
      7 C7        -10.1475   -2.3699   57.7420 C.3     1  ZINC001207290212    0.0900
      8 C8        -10.4644   -1.3796   56.6511 C.2     1  ZINC001207290212    0.5100
      9 O9        -11.6187   -1.1418   56.3645 O.2     1  ZINC001207290212   -0.5300
     10 N10        -9.4652   -0.7582   55.9940 N.am    1  ZINC001207290212   -0.7200
     11 C11        -9.7733    0.2058   54.9348 C.3     1  ZINC001207290212    0.1400
     12 H12       -10.8116    0.5290   55.0086 H       1  ZINC001207290212    0.1000
     13 C13        -9.5041   -0.4155   53.5517 C.3     1  ZINC001207290212    0.0200
     14 N14        -8.4397    0.3895   52.9142 N.3     1  ZINC001207290212   -0.5100
     15 C15        -8.6376    0.4674   51.4606 C.3     1  ZINC001207290212    0.1300
     16 C16        -7.5319    1.2864   50.8462 C.2     1  ZINC001207290212    0.0000
     17 C17        -7.6660    2.1810   49.8532 C.2     1  ZINC001207290212   -0.0700
     18 O18        -6.4413    2.6853   49.6057 O.3     1  ZINC001207290212   -0.2000
     19 C19        -5.5795    2.0962   50.4453 C.2     1  ZINC001207290212    0.1900
     20 C20        -4.0982    2.3643   50.5135 C.3     1  ZINC001207290212   -0.0600
     21 N21        -6.2341    1.2579   51.1973 N.2     1  ZINC001207290212   -0.4700
     22 C22        -8.5231    1.7360   53.5357 C.3     1  ZINC001207290212    0.0400
     23 C23        -8.8246    1.4232   55.0246 C.3     1  ZINC001207290212   -0.1000
     24 H24        -7.9102    1.1598   55.5563 H       1  ZINC001207290212    0.0900
     25 C25        -9.5173    2.6098   55.6975 C.3     1  ZINC001207290212   -0.1400
     26 H26        -8.2623    1.2703   60.2253 H       1  ZINC001207290212    0.0700
     27 H27        -9.9788    0.8017   60.2722 H       1  ZINC001207290212    0.0700
     28 H28        -9.1774    1.3938   61.7470 H       1  ZINC001207290212    0.0800
     29 H29        -7.7090   -0.6042   61.7513 H       1  ZINC001207290212    0.1300
     30 H30        -9.4255   -1.0728   61.7982 H       1  ZINC001207290212    0.1300
     31 H31       -10.6839   -1.2269   59.4490 H       1  ZINC001207290212    0.4300
     32 H32        -9.2441   -2.9211   57.4810 H       1  ZINC001207290212    0.1000
     33 H33       -10.9787   -3.0662   57.8532 H       1  ZINC001207290212    0.1100
     34 H34        -8.5420   -0.9493   56.2223 H       1  ZINC001207290212    0.4100
     35 H35        -9.1711   -1.4471   53.6665 H       1  ZINC001207290212    0.0800
     36 H36       -10.4096   -0.3801   52.9460 H       1  ZINC001207290212    0.0500
     37 H37        -8.6237   -0.5371   51.0377 H       1  ZINC001207290212    0.0600
     38 H38        -9.5983    0.9372   51.2495 H       1  ZINC001207290212    0.1000
     39 H39        -8.5831    2.4460   49.3479 H       1  ZINC001207290212    0.2100
     40 H40        -3.8303    3.1157   49.7706 H       1  ZINC001207290212    0.0900
     41 H41        -3.8402    2.7286   51.5080 H       1  ZINC001207290212    0.1000
     42 H42        -3.5523    1.4427   50.3113 H       1  ZINC001207290212    0.1000
     43 H43        -7.5748    2.2643   53.4376 H       1  ZINC001207290212    0.0900
     44 H44        -9.3343    2.3142   53.0934 H       1  ZINC001207290212    0.0500
     45 H45       -10.4432    2.8374   55.1694 H       1  ZINC001207290212    0.0600
     46 H46        -9.7426    2.3589   56.7341 H       1  ZINC001207290212    0.0600
     47 H47        -8.8596    3.4785   55.6687 H       1  ZINC001207290212    0.0600
@<TRIPOS>BOND
     1     1     2    1
     2     1    26    1
     3     1    27    1
     4     1    28    1
     5     2     3    1
     6     2    29    1
     7     2    30    1
     8     3     4    2
     9     3     5    2
    10     3     6   am
    11     6     7    1
    12     6    31    1
    13     7     8    1
    14     7    32    1
    15     7    33    1
    16     8     9    2
    17     8    10   am
    18    10    11    1
    19    10    34    1
    20    11    12    1
    21    11    23    1
    22    11    13    1
    23    13    14    1
    24    13    35    1
    25    13    36    1
    26    14    15    1
    27    14    22    1
    28    15    16    1
    29    15    37    1
    30    15    38    1
    31    16    21    1
    32    16    17    2
    33    17    18    1
    34    17    39    1
    35    18    19    1
    36    19    20    1
    37    19    21    2
    38    20    40    1
    39    20    41    1
    40    20    42    1
    41    22    23    1
    42    22    43    1
    43    22    44    1
    44    23    24    1
    45    23    25    1
    46    25    45    1
    47    25    46    1
    48    25    47    1
@<TRIPOS>SUBSTRUCTURE
     1 ZINC001207290212        1 TEMP              0 ****  ****    0 ROOT


##########                                Name:    ZINC000826435081
##########                DOCK_Rotatable_Bonds:                   7
##########                         Heavy_Atoms:                  28
##########                    Molecular_Weight:             388.361
##########                DOCK_Rotatable_Bonds:                   7
##########                       Formal_Charge:           0.0099996
##########                     HBond_Acceptors:                  12
##########                        HBond_Donors:                   3
##########                         Heavy_Atoms:                  28
##########                          Grid_Score:          -31.990467
##########                     Grid_vdw_energy:          -32.673122
##########                      Grid_es_energy:            0.682656
##########           Internal_energy_repulsive:            8.692442

@<TRIPOS>MOLECULE
ZINC000826435081
 45 48 1 0 0
SMALL
USER_CHARGES


@<TRIPOS>ATOM
      1 O1         -7.4313    0.8858   53.5474 O.2     1  ZINC000826435081   -0.5700
      2 C2         -8.0555    0.0515   52.9207 C.2     1  ZINC000826435081    0.7200
      3 N3         -8.9616   -0.7240   53.5482 N.am    1  ZINC000826435081   -0.7300
      4 C4         -9.1901   -0.5662   54.9866 C.3     1  ZINC000826435081    0.1500
      5 C5         -9.9088   -1.8037   55.5277 C.3     1  ZINC000826435081    0.0400
      6 H6         -9.3758   -2.7011   55.2134 H       1  ZINC000826435081    0.0800
      7 C7        -11.3404   -1.8424   54.9853 C.3     1  ZINC000826435081    0.0300
      8 O8        -12.0393   -2.9386   55.5827 O.3     1  ZINC000826435081   -0.3800
      9 C9        -12.0802   -2.8811   57.0118 C.3     1  ZINC000826435081    0.0200
     10 C10       -10.6485   -2.8426   57.5542 C.3     1  ZINC000826435081    0.0200
     11 O11        -9.9483   -1.7471   56.9568 O.3     1  ZINC000826435081   -0.3700
     12 N12        -7.8453   -0.0937   51.5973 N.am    1  ZINC000826435081   -0.6400
     13 C13        -6.9033    0.7126   50.9449 C.2     1  ZINC000826435081    0.3300
     14 N14        -5.6042    0.6798   51.1276 N.2     1  ZINC000826435081   -0.2800
     15 N15        -5.0198    1.6382   50.2896 N.pl3   1  ZINC000826435081   -0.3300
     16 C16        -3.6524    1.9170   50.1858 C.ar    1  ZINC000826435081    0.2200
     17 C17        -2.8807    1.2701   49.2322 C.ar    1  ZINC000826435081   -0.1300
     18 C18        -1.5304    1.5456   49.1301 C.ar    1  ZINC000826435081   -0.0500
     19 C19        -0.9392    2.4662   49.9764 C.ar    1  ZINC000826435081   -0.1500
     20 C20        -1.6956    3.1194   50.9325 C.ar    1  ZINC000826435081    0.1500
     21 F21        -1.1145    4.0181   51.7568 F       1  ZINC000826435081   -0.1100
     22 C22        -3.0601    2.8534   51.0399 C.ar    1  ZINC000826435081   -0.0500
     23 C23        -3.8771    3.5507   52.0632 C.2     1  ZINC000826435081    0.2100
     24 N24        -3.5654    3.7300   53.3317 N.2     1  ZINC000826435081   -0.2800
     25 N25        -4.5309    4.3784   53.8870 N.pl3   1  ZINC000826435081   -0.2300
     26 N26        -5.4440    4.6155   53.0112 N.2     1  ZINC000826435081   -0.0500
     27 N27        -5.0737    4.1263   51.8768 N.2     1  ZINC000826435081   -0.2300
     28 C28        -6.0146    2.2491   49.5958 C.2     1  ZINC000826435081    0.0700
     29 C29        -7.1860    1.6915   49.9778 C.2     1  ZINC000826435081   -0.2400
     30 H30        -9.4626   -1.3868   53.0474 H       1  ZINC000826435081    0.4000
     31 H31        -8.2334   -0.4499   55.4958 H       1  ZINC000826435081    0.0800
     32 H32        -9.8048    0.3167   55.1621 H       1  ZINC000826435081    0.0900
     33 H33       -11.8482   -0.9096   55.2306 H       1  ZINC000826435081    0.0700
     34 H34       -11.3167   -1.9718   53.9033 H       1  ZINC000826435081    0.1100
     35 H35       -12.6127   -1.9833   57.3252 H       1  ZINC000826435081    0.0600
     36 H36       -12.5920   -3.7628   57.3973 H       1  ZINC000826435081    0.1100
     37 H37       -10.6722   -2.7132   58.6362 H       1  ZINC000826435081    0.1100
     38 H38       -10.1407   -3.7753   57.3089 H       1  ZINC000826435081    0.0600
     39 H39        -8.3462   -0.7565   51.0966 H       1  ZINC000826435081    0.4100
     40 H40        -3.3357    0.5497   48.5687 H       1  ZINC000826435081    0.1500
     41 H41        -0.9335    1.0393   48.3859 H       1  ZINC000826435081    0.1500
     42 H42         0.1169    2.6753   49.8906 H       1  ZINC000826435081    0.1500
     43 H43        -4.5642    4.6458   54.8188 H       1  ZINC000826435081    0.4800
     44 H44        -5.8921    3.0359   48.8661 H       1  ZINC000826435081    0.1800
     45 H45        -8.1661    1.9569   49.6100 H       1  ZINC000826435081    0.1800
@<TRIPOS>BOND
     1     1     2    2
     2     2     3   am
     3     2    12   am
     4     3     4    1
     5     3    30    1
     6     4     5    1
     7     4    31    1
     8     4    32    1
     9     5     6    1
    10     5    11    1
    11     5     7    1
    12     7     8    1
    13     7    33    1
    14     7    34    1
    15     8     9    1
    16     9    10    1
    17     9    35    1
    18     9    36    1
    19    10    11    1
    20    10    37    1
    21    10    38    1
    22    12    13    1
    23    12    39    1
    24    13    29    1
    25    13    14    2
    26    14    15    1
    27    15    16    1
    28    15    28    1
    29    16    22   ar
    30    16    17   ar
    31    17    18   ar
    32    17    40    1
    33    18    19   ar
    34    18    41    1
    35    19    20   ar
    36    19    42    1
    37    20    21    1
    38    20    22   ar
    39    22    23    1
    40    23    27    1
    41    23    24    2
    42    24    25    1
    43    25    26    1
    44    25    43    1
    45    26    27    2
    46    28    29    2
    47    28    44    1
    48    29    45    1
@<TRIPOS>SUBSTRUCTURE
     1 ZINC000826435081        1 TEMP              0 ****  ****    0 ROOT


##########                                Name:    ZINC000426805817
##########                DOCK_Rotatable_Bonds:                   6
##########                         Heavy_Atoms:                  26
##########                    Molecular_Weight:             412.286
##########                DOCK_Rotatable_Bonds:                   6
##########                       Formal_Charge:          -0.0100001
##########                     HBond_Acceptors:                   5
##########                        HBond_Donors:                   4
##########                         Heavy_Atoms:                  26
##########                          Grid_Score:          -31.986258
##########                     Grid_vdw_energy:          -30.262022
##########                      Grid_es_energy:           -1.724235
##########           Internal_energy_repulsive:            3.744855

@<TRIPOS>MOLECULE
ZINC000426805817
 44 47 1 0 0
SMALL
USER_CHARGES


@<TRIPOS>ATOM
      1 O1         -9.2938    3.7252   58.0224 O.co2   1  ZINC000426805817   -0.6300
      2 C2         -8.4012    2.9995   58.4263 C.2     1  ZINC000426805817    0.5000
      3 O3         -7.4539    3.4756   59.0283 O.co2   1  ZINC000426805817   -0.6800
      4 C4         -8.4718    1.5134   58.1868 C.3     1  ZINC000426805817   -0.0500
      5 H5         -7.4670    1.0920   58.2185 H       1  ZINC000426805817    0.1300
      6 C6         -9.3323    0.8622   59.2715 C.3     1  ZINC000426805817   -0.0500
      7 C7         -9.0158   -0.6092   59.3478 C.2     1  ZINC000426805817   -0.1900
      8 C8         -7.9571   -1.1678   59.9551 C.2     1  ZINC000426805817    0.0500
      9 N9         -8.0040   -2.5282   59.8166 N.pl3   1  ZINC000426805817   -0.5900
     10 C10        -9.1229   -2.8877   59.0982 C.ar    1  ZINC000426805817    0.1100
     11 C11        -9.6396   -4.1096   58.6814 C.ar    1  ZINC000426805817   -0.1200
     12 C12       -10.8104   -4.1497   57.9567 C.ar    1  ZINC000426805817   -0.0700
     13 C13       -11.4849   -2.9789   57.6355 C.ar    1  ZINC000426805817   -0.1100
     14 Br14      -13.0904   -3.0618   56.6396 Br      1  ZINC000426805817   -0.0400
     15 C15       -10.9914   -1.7581   58.0385 C.ar    1  ZINC000426805817   -0.0400
     16 C16        -9.8089   -1.7017   58.7787 C.ar    1  ZINC000426805817   -0.1000
     17 N17        -9.0686    1.2575   56.8690 N.4     1  ZINC000426805817   -0.4800
     18 H18        -9.9336    0.7510   56.9841 H       1  ZINC000426805817    0.4000
     19 H19        -9.2519    2.1354   56.4066 H       1  ZINC000426805817    0.4200
     20 C20        -8.1391    0.4610   56.0568 C.3     1  ZINC000426805817    0.0400
     21 C21        -8.7684    0.1630   54.7203 C.ar    1  ZINC000426805817   -0.1600
     22 C22        -7.9882    0.1508   53.5690 C.ar    1  ZINC000426805817    0.1100
     23 N23        -6.6497    0.3660   53.3285 N.pl3   1  ZINC000426805817   -0.5900
     24 C24        -6.3898    0.2321   51.9917 C.2     1  ZINC000426805817    0.0600
     25 C25        -7.5207   -0.0670   51.3333 C.2     1  ZINC000426805817   -0.2000
     26 C26        -8.5926   -0.1299   52.3297 C.ar    1  ZINC000426805817   -0.1100
     27 C27        -9.9622   -0.3922   52.2664 C.ar    1  ZINC000426805817   -0.0400
     28 C28       -10.7098   -0.3751   53.4102 C.ar    1  ZINC000426805817   -0.1500
     29 C29       -10.1175   -0.1039   54.6357 C.ar    1  ZINC000426805817   -0.0700
     30 H30        -9.1203    1.3299   60.2329 H       1  ZINC000426805817    0.1200
     31 H31       -10.3863    0.9950   59.0274 H       1  ZINC000426805817    0.0900
     32 H32        -7.1828   -0.6239   60.4757 H       1  ZINC000426805817    0.1700
     33 H33        -7.3469   -3.1474   60.1716 H       1  ZINC000426805817    0.4200
     34 H34        -9.1231   -5.0263   58.9253 H       1  ZINC000426805817    0.1300
     35 H35       -11.2076   -5.1010   57.6349 H       1  ZINC000426805817    0.1400
     36 H36       -11.5183   -0.8495   57.7871 H       1  ZINC000426805817    0.1400
     37 H37        -7.2160    1.0209   55.9070 H       1  ZINC000426805817    0.1500
     38 H38        -7.9174   -0.4743   56.5706 H       1  ZINC000426805817    0.1300
     39 H39        -5.9893    0.5810   54.0057 H       1  ZINC000426805817    0.4300
     40 H40        -5.4187    0.3498   51.5342 H       1  ZINC000426805817    0.1800
     41 H41        -7.6213   -0.2300   50.2704 H       1  ZINC000426805817    0.1500
     42 H42       -10.4293   -0.6077   51.3167 H       1  ZINC000426805817    0.1300
     43 H43       -11.7695   -0.5781   53.3606 H       1  ZINC000426805817    0.1300
     44 H44       -10.7216   -0.0938   55.5309 H       1  ZINC000426805817    0.1300
@<TRIPOS>BOND
     1     1     2   ar
     2     2     3   ar
     3     2     4    1
     4     4     5    1
     5     4     6    1
     6     4    17    1
     7     6     7    1
     8     6    30    1
     9     6    31    1
    10     7    16    1
    11     7     8    2
    12     8     9    1
    13     8    32    1
    14     9    10    1
    15     9    33    1
    16    10    16   ar
    17    10    11   ar
    18    11    12   ar
    19    11    34    1
    20    12    13   ar
    21    12    35    1
    22    13    14    1
    23    13    15   ar
    24    15    16   ar
    25    15    36    1
    26    17    18    1
    27    17    19    1
    28    17    20    1
    29    20    21    1
    30    20    37    1
    31    20    38    1
    32    21    29   ar
    33    21    22   ar
    34    22    26   ar
    35    22    23    1
    36    23    24    1
    37    23    39    1
    38    24    25    2
    39    24    40    1
    40    25    26    1
    41    25    41    1
    42    26    27   ar
    43    27    28   ar
    44    27    42    1
    45    28    29   ar
    46    28    43    1
    47    29    44    1
@<TRIPOS>SUBSTRUCTURE
     1 ZINC000426805817        1 TEMP              0 ****  ****    0 ROOT


##########                                Name:    ZINC000846412382
##########                DOCK_Rotatable_Bonds:                   6
##########                         Heavy_Atoms:                  26
##########                    Molecular_Weight:             370.475
##########                DOCK_Rotatable_Bonds:                   6
##########                       Formal_Charge:               -0.03
##########                     HBond_Acceptors:                   7
##########                        HBond_Donors:                   4
##########                         Heavy_Atoms:                  26
##########                          Grid_Score:          -31.980587
##########                     Grid_vdw_energy:          -32.302753
##########                      Grid_es_energy:            0.322167
##########           Internal_energy_repulsive:           25.262415

@<TRIPOS>MOLECULE
ZINC000846412382
 48 50 1 0 0
SMALL
USER_CHARGES


@<TRIPOS>ATOM
      1 C1         -3.4329    3.7603   51.5532 C.3     1  ZINC000846412382   -0.1400
      2 C2         -2.8811    2.6975   50.6383 C.2     1  ZINC000846412382    0.0300
      3 C3         -3.6723    1.8463   49.9732 C.2     1  ZINC000846412382   -0.2700
      4 C4         -5.1384    1.8379   50.0467 C.2     1  ZINC000846412382    0.6000
      5 O5         -5.7925    2.4483   49.2220 O.2     1  ZINC000846412382   -0.5200
      6 N6         -5.7599    1.1540   51.0277 N.am    1  ZINC000846412382   -0.7100
      7 C7         -7.2231    1.1470   51.1021 C.3     1  ZINC000846412382    0.1200
      8 H8         -7.6357    1.5630   50.1830 H       1  ZINC000846412382    0.1000
      9 C9         -7.7179   -0.2900   51.2786 C.3     1  ZINC000846412382   -0.1700
     10 C10        -7.6772    1.9926   52.2935 C.3     1  ZINC000846412382    0.1700
     11 C11        -8.4109    3.2358   51.7863 C.3     1  ZINC000846412382   -0.1400
     12 O12        -6.5370    2.3910   53.0572 O.3     1  ZINC000846412382   -0.5500
     13 C13        -8.6045    1.1812   53.1612 C.ar    1  ZINC000846412382   -0.1200
     14 C14        -8.1132    0.5286   54.2763 C.ar    1  ZINC000846412382   -0.1100
     15 C15        -8.9637   -0.2157   55.0723 C.ar    1  ZINC000846412382   -0.1200
     16 C16       -10.3057   -0.3068   54.7534 C.ar    1  ZINC000846412382   -0.1200
     17 C17       -10.7971    0.3466   53.6387 C.ar    1  ZINC000846412382   -0.1200
     18 C18        -9.9474    1.0943   52.8452 C.ar    1  ZINC000846412382   -0.1000
     19 S19        -2.7147    0.7421   49.0009 S.3     1  ZINC000846412382    0.2000
     20 C20        -1.2166    1.4887   49.5397 C.ar    1  ZINC000846412382    0.1400
     21 N21         0.0603    1.2196   49.2446 N.ar    1  ZINC000846412382   -0.5300
     22 C22         1.0397    1.9181   49.7718 C.ar    1  ZINC000846412382    0.3900
     23 C23         2.4599    1.5731   49.4047 C.3     1  ZINC000846412382   -0.0900
     24 N24         0.8214    2.9130   50.6124 N.ar    1  ZINC000846412382   -0.5800
     25 C25        -0.4073    3.2570   50.9671 C.ar    1  ZINC000846412382    0.5100
     26 N26        -0.6170    4.2995   51.8469 N.pl3   1  ZINC000846412382   -0.8300
     27 C27        -1.5084    2.5379   50.4224 C.ar    1  ZINC000846412382   -0.2500
     28 H28        -3.5237    4.6989   51.0065 H       1  ZINC000846412382    0.0800
     29 H29        -4.4144    3.4543   51.9153 H       1  ZINC000846412382    0.1100
     30 H30        -2.7596    3.8964   52.3996 H       1  ZINC000846412382    0.0700
     31 H31        -5.2386    0.6664   51.6845 H       1  ZINC000846412382    0.4000
     32 H32        -7.3054   -0.7060   52.1978 H       1  ZINC000846412382    0.0600
     33 H33        -8.8065   -0.2952   51.3340 H       1  ZINC000846412382    0.0800
     34 H34        -7.3943   -0.8925   50.4298 H       1  ZINC000846412382    0.0700
     35 H35        -9.2807    2.9321   51.2039 H       1  ZINC000846412382    0.0700
     36 H36        -8.7344    3.8384   52.6351 H       1  ZINC000846412382    0.0700
     37 H37        -7.7403    3.8227   51.1588 H       1  ZINC000846412382    0.0700
     38 H38        -5.8385    2.8067   52.5332 H       1  ZINC000846412382    0.3800
     39 H39        -7.0647    0.5998   54.5254 H       1  ZINC000846412382    0.1300
     40 H40        -8.5797   -0.7262   55.9430 H       1  ZINC000846412382    0.1200
     41 H41       -10.9700   -0.8889   55.3748 H       1  ZINC000846412382    0.1200
     42 H42       -11.8455    0.2750   53.3894 H       1  ZINC000846412382    0.1200
     43 H43       -10.3314    1.6048   51.9743 H       1  ZINC000846412382    0.1300
     44 H44         2.7582    2.1471   48.5274 H       1  ZINC000846412382    0.0900
     45 H45         3.1195    1.8144   50.2382 H       1  ZINC000846412382    0.0900
     46 H46         2.5294    0.5082   49.1830 H       1  ZINC000846412382    0.0900
     47 H47         0.0915    4.5760   52.4490 H       1  ZINC000846412382    0.4100
     48 H48        -1.4729    4.7556   51.8631 H       1  ZINC000846412382    0.4200
@<TRIPOS>BOND
     1     1     2    1
     2     1    28    1
     3     1    29    1
     4     1    30    1
     5     2    27    1
     6     2     3    2
     7     3     4    1
     8     3    19    1
     9     4     5    2
    10     4     6   am
    11     6     7    1
    12     6    31    1
    13     7     8    1
    14     7     9    1
    15     7    10    1
    16     9    32    1
    17     9    33    1
    18     9    34    1
    19    10    11    1
    20    10    12    1
    21    10    13    1
    22    11    35    1
    23    11    36    1
    24    11    37    1
    25    12    38    1
    26    13    18   ar
    27    13    14   ar
    28    14    15   ar
    29    14    39    1
    30    15    16   ar
    31    15    40    1
    32    16    17   ar
    33    16    41    1
    34    17    18   ar
    35    17    42    1
    36    18    43    1
    37    19    20    1
    38    20    27   ar
    39    20    21   ar
    40    21    22   ar
    41    22    23    1
    42    22    24   ar
    43    23    44    1
    44    23    45    1
    45    23    46    1
    46    24    25   ar
    47    25    26    1
    48    25    27   ar
    49    26    47    1
    50    26    48    1
@<TRIPOS>SUBSTRUCTURE
     1 ZINC000846412382        1 TEMP              0 ****  ****    0 ROOT


##########                                Name:    ZINC000851838607
##########                DOCK_Rotatable_Bonds:                  12
##########                         Heavy_Atoms:                  23
##########                    Molecular_Weight:             352.495
##########                DOCK_Rotatable_Bonds:                  12
##########                       Formal_Charge:          0.00999896
##########                     HBond_Acceptors:                   8
##########                        HBond_Donors:                   2
##########                         Heavy_Atoms:                  23
##########                          Grid_Score:          -31.971680
##########                     Grid_vdw_energy:          -27.304176
##########                      Grid_es_energy:           -4.667504
##########           Internal_energy_repulsive:           24.024883

@<TRIPOS>MOLECULE
ZINC000851838607
 55 54 1 0 0
SMALL
USER_CHARGES


@<TRIPOS>ATOM
      1 C1         -6.0756    4.2392   67.2606 C.3     1  ZINC000851838607    0.0300
      2 O2         -6.2098    3.1779   68.2082 O.3     1  ZINC000851838607   -0.3800
      3 C3         -7.2675    2.2640   67.9115 C.3     1  ZINC000851838607    0.0800
      4 C4         -7.0182    1.6214   66.5456 C.3     1  ZINC000851838607   -0.6000
      5 H5         -6.9827    2.3968   65.7804 H       1  ZINC000851838607    0.1400
      6 C6         -5.6862    0.8690   66.5714 C.3     1  ZINC000851838607   -0.1400
      7 S7         -8.3609    0.4613   66.1690 S.o2    1  ZINC000851838607    2.6200
      8 O8         -8.2789   -0.6846   67.0052 O.2     1  ZINC000851838607   -0.9400
      9 O9         -9.5879    1.1573   65.9981 O.2     1  ZINC000851838607   -0.9500
     10 N10        -8.0013   -0.1099   64.6567 N.am    1  ZINC000851838607   -1.1200
     11 C11        -7.9033    0.8181   63.5274 C.3     1  ZINC000851838607    0.1100
     12 C12        -9.1536    0.6929   62.6544 C.3     1  ZINC000851838607   -0.1400
     13 C13        -8.8636    1.2609   61.2637 C.3     1  ZINC000851838607    0.1700
     14 H14        -7.8305    1.0451   60.9913 H       1  ZINC000851838607    0.1000
     15 N15        -9.7651    0.6447   60.2870 N.am    1  ZINC000851838607   -0.7100
     16 C16        -9.3172   -0.3415   59.4850 C.2     1  ZINC000851838607    0.6500
     17 O17        -8.1660   -0.7207   59.5730 O.2     1  ZINC000851838607   -0.5600
     18 O18       -10.1452   -0.9066   58.5863 O.3     1  ZINC000851838607   -0.3700
     19 C19       -10.7539   -2.1722   58.9553 C.3     1  ZINC000851838607    0.1400
     20 C20        -9.8032   -3.3177   58.6019 C.3     1  ZINC000851838607   -0.1800
     21 C21       -11.0312   -2.1853   60.4599 C.3     1  ZINC000851838607   -0.1400
     22 C22       -12.0688   -2.3472   58.1929 C.3     1  ZINC000851838607   -0.1800
     23 C23        -9.0824    2.7750   61.2754 C.3     1  ZINC000851838607   -0.1100
     24 C24        -7.8728    3.4699   60.6470 C.3     1  ZINC000851838607   -0.1500
     25 C25       -10.3398    3.1149   60.4725 C.3     1  ZINC000851838607   -0.1400
     26 H26        -5.8731    3.8220   66.2741 H       1  ZINC000851838607    0.0400
     27 H27        -6.9997    4.8163   67.2282 H       1  ZINC000851838607    0.0500
     28 H28        -5.2518    4.8886   67.5566 H       1  ZINC000851838607    0.0900
     29 H29        -7.3029    1.4886   68.6768 H       1  ZINC000851838607    0.0700
     30 H30        -8.2164    2.8001   67.8932 H       1  ZINC000851838607    0.0600
     31 H31        -5.5514    0.3365   65.6299 H       1  ZINC000851838607    0.0700
     32 H32        -4.8705    1.5790   66.7073 H       1  ZINC000851838607    0.0900
     33 H33        -5.6879    0.1555   67.3954 H       1  ZINC000851838607    0.0700
     34 H34        -7.8555   -1.0589   64.5187 H       1  ZINC000851838607    0.4200
     35 H35        -7.8221    1.8386   63.9016 H       1  ZINC000851838607    0.0700
     36 H36        -7.0208    0.5772   62.9347 H       1  ZINC000851838607    0.0800
     37 H37        -9.4322   -0.3572   62.5673 H       1  ZINC000851838607    0.0800
     38 H38        -9.9724    1.2493   63.1106 H       1  ZINC000851838607    0.1000
     39 H39       -10.6843    0.9465   60.2175 H       1  ZINC000851838607    0.4100
     40 H40        -8.8664   -3.1931   59.1451 H       1  ZINC000851838607    0.0600
     41 H41       -10.2602   -4.2677   58.8789 H       1  ZINC000851838607    0.0700
     42 H42        -9.6057   -3.3084   57.5300 H       1  ZINC000851838607    0.0900
     43 H43       -11.7085   -1.3691   60.7117 H       1  ZINC000851838607    0.0700
     44 H44       -11.4881   -3.1353   60.7370 H       1  ZINC000851838607    0.0800
     45 H45       -10.0944   -2.0606   61.0030 H       1  ZINC000851838607    0.0700
     46 H46       -11.8714   -2.3379   57.1210 H       1  ZINC000851838607    0.0900
     47 H47       -12.5259   -3.2972   58.4700 H       1  ZINC000851838607    0.0700
     48 H48       -12.7462   -1.5310   58.4447 H       1  ZINC000851838607    0.0600
     49 H49        -9.2042    3.1167   62.3032 H       1  ZINC000851838607    0.0700
     50 H50        -7.7510    3.1283   59.6191 H       1  ZINC000851838607    0.0600
     51 H51        -8.0288    4.5487   60.6552 H       1  ZINC000851838607    0.0600
     52 H52        -6.9771    3.2279   61.2189 H       1  ZINC000851838607    0.0600
     53 H53       -11.2015    2.6198   60.9202 H       1  ZINC000851838607    0.0500
     54 H54       -10.4956    4.1936   60.4808 H       1  ZINC000851838607    0.0500
     55 H55       -10.2179    2.7732   59.4446 H       1  ZINC000851838607    0.0700
@<TRIPOS>BOND
     1     1     2    1
     2     1    26    1
     3     1    27    1
     4     1    28    1
     5     2     3    1
     6     3     4    1
     7     3    29    1
     8     3    30    1
     9     4     5    1
    10     4     6    1
    11     4     7    1
    12     6    31    1
    13     6    32    1
    14     6    33    1
    15     7     8    2
    16     7     9    2
    17     7    10   am
    18    10    11    1
    19    10    34    1
    20    11    12    1
    21    11    35    1
    22    11    36    1
    23    12    13    1
    24    12    37    1
    25    12    38    1
    26    13    14    1
    27    13    15    1
    28    13    23    1
    29    15    16   am
    30    15    39    1
    31    16    17    2
    32    16    18    1
    33    18    19    1
    34    19    20    1
    35    19    21    1
    36    19    22    1
    37    20    40    1
    38    20    41    1
    39    20    42    1
    40    21    43    1
    41    21    44    1
    42    21    45    1
    43    22    46    1
    44    22    47    1
    45    22    48    1
    46    23    24    1
    47    23    25    1
    48    23    49    1
    49    24    50    1
    50    24    51    1
    51    24    52    1
    52    25    53    1
    53    25    54    1
    54    25    55    1
@<TRIPOS>SUBSTRUCTURE
     1 ZINC000851838607        1 TEMP              0 ****  ****    0 ROOT


##########                                Name:    ZINC000536173632
##########                DOCK_Rotatable_Bonds:                   7
##########                         Heavy_Atoms:                  29
##########                    Molecular_Weight:             407.389
##########                DOCK_Rotatable_Bonds:                   7
##########                       Formal_Charge:        -2.98023e-07
##########                     HBond_Acceptors:                   8
##########                        HBond_Donors:                   0
##########                         Heavy_Atoms:                  29
##########                          Grid_Score:          -31.949785
##########                     Grid_vdw_energy:          -32.639233
##########                      Grid_es_energy:            0.689447
##########           Internal_energy_repulsive:           13.684647

@<TRIPOS>MOLECULE
ZINC000536173632
 49 51 1 0 0
SMALL
USER_CHARGES


@<TRIPOS>ATOM
      1 C1         -2.0008   -0.2869   48.1275 C.3     1  ZINC000536173632    0.0400
      2 O2         -2.9603    0.4953   48.8865 O.3     1  ZINC000536173632   -0.3500
      3 C3         -2.4854    1.5633   49.5561 C.2     1  ZINC000536173632    0.5100
      4 O4         -1.3060    1.8464   49.4900 O.2     1  ZINC000536173632   -0.5000
      5 C5         -3.3989    2.3903   50.3709 C.ar    1  ZINC000536173632   -0.1300
      6 C6         -2.9195    3.5248   51.0282 C.ar    1  ZINC000536173632   -0.0600
      7 C7         -3.7781    4.2926   51.7876 C.ar    1  ZINC000536173632   -0.1300
      8 C8         -5.1113    3.9402   51.8989 C.ar    1  ZINC000536173632   -0.0700
      9 C9         -5.5932    2.8169   51.2500 C.ar    1  ZINC000536173632   -0.0800
     10 C10        -7.0471    2.4409   51.3772 C.3     1  ZINC000536173632   -0.1000
     11 C11        -7.2026    1.3906   52.4465 C.2     1  ZINC000536173632    0.5200
     12 O12        -6.2209    0.9139   52.9758 O.2     1  ZINC000536173632   -0.5200
     13 N13        -8.4326    0.9808   52.8146 N.am    1  ZINC000536173632   -0.6200
     14 C14        -9.6383    1.5443   52.1868 C.3     1  ZINC000536173632    0.0700
     15 C15       -10.5970    1.9917   53.2963 C.3     1  ZINC000536173632    0.0500
     16 O16       -10.8023    0.9082   54.2060 O.3     1  ZINC000536173632   -0.3700
     17 C17        -9.6185    0.4809   54.8840 C.3     1  ZINC000536173632    0.1200
     18 H18        -9.1840    1.3224   55.4236 H       1  ZINC000536173632    0.0800
     19 C19        -9.9641   -0.6167   55.8571 C.ar    1  ZINC000536173632   -0.0900
     20 C20       -10.8658   -1.6004   55.4975 C.ar    1  ZINC000536173632   -0.0600
     21 C21       -11.1829   -2.6074   56.3903 C.ar    1  ZINC000536173632   -0.1200
     22 C22       -10.5978   -2.6305   57.6422 C.ar    1  ZINC000536173632   -0.0700
     23 C23        -9.6949   -1.6471   58.0016 C.ar    1  ZINC000536173632   -0.1800
     24 C24        -9.0572   -1.6720   59.3668 C.3     1  ZINC000536173632    0.5100
     25 F25        -7.9957   -2.5832   59.3690 F       1  ZINC000536173632   -0.1800
     26 F26        -8.5772   -0.3960   59.6807 F       1  ZINC000536173632   -0.1800
     27 F27       -10.0067   -2.0600   60.3180 F       1  ZINC000536173632   -0.1800
     28 C28        -9.3747   -0.6429   57.1075 C.ar    1  ZINC000536173632   -0.0500
     29 C29        -8.6095   -0.0479   53.8519 C.3     1  ZINC000536173632    0.0900
     30 C30        -4.7471    2.0439   50.4825 C.ar    1  ZINC000536173632   -0.0400
     31 H31        -1.5309    0.3457   47.3744 H       1  ZINC000536173632    0.0600
     32 H32        -1.2379   -0.6786   48.8004 H       1  ZINC000536173632    0.0600
     33 H33        -2.5133   -1.1150   47.6379 H       1  ZINC000536173632    0.1000
     34 H34        -1.8788    3.8006   50.9426 H       1  ZINC000536173632    0.1400
     35 H35        -3.4085    5.1706   52.2965 H       1  ZINC000536173632    0.1400
     36 H36        -5.7790    4.5444   52.4952 H       1  ZINC000536173632    0.1300
     37 H37        -7.6281    3.3228   51.6468 H       1  ZINC000536173632    0.1100
     38 H38        -7.4048    2.0469   50.4259 H       1  ZINC000536173632    0.1100
     39 H39        -9.3651    2.4007   51.5703 H       1  ZINC000536173632    0.1000
     40 H40       -10.1195    0.7857   51.5696 H       1  ZINC000536173632    0.0800
     41 H41       -10.1661    2.8387   53.8300 H       1  ZINC000536173632    0.0600
     42 H42       -11.5508    2.2841   52.8571 H       1  ZINC000536173632    0.1100
     43 H43       -11.3231   -1.5823   54.5193 H       1  ZINC000536173632    0.1400
     44 H44       -11.8882   -3.3756   56.1095 H       1  ZINC000536173632    0.1400
     45 H45       -10.8460   -3.4167   58.3399 H       1  ZINC000536173632    0.1400
     46 H46        -8.6694    0.1254   57.3882 H       1  ZINC000536173632    0.1400
     47 H47        -8.9891   -0.9665   53.4047 H       1  ZINC000536173632    0.0800
     48 H48        -7.6544   -0.2438   54.3392 H       1  ZINC000536173632    0.1100
     49 H49        -5.1245    1.1677   49.9764 H       1  ZINC000536173632    0.1400
@<TRIPOS>BOND
     1     1     2    1
     2     1    31    1
     3     1    32    1
     4     1    33    1
     5     2     3    1
     6     3     4    2
     7     3     5    1
     8     5    30   ar
     9     5     6   ar
    10     6     7   ar
    11     6    34    1
    12     7     8   ar
    13     7    35    1
    14     8     9   ar
    15     8    36    1
    16     9    10    1
    17     9    30   ar
    18    10    11    1
    19    10    37    1
    20    10    38    1
    21    11    12    2
    22    11    13   am
    23    13    29    1
    24    13    14    1
    25    14    15    1
    26    14    39    1
    27    14    40    1
    28    15    16    1
    29    15    41    1
    30    15    42    1
    31    16    17    1
    32    17    18    1
    33    17    19    1
    34    17    29    1
    35    19    28   ar
    36    19    20   ar
    37    20    21   ar
    38    20    43    1
    39    21    22   ar
    40    21    44    1
    41    22    23   ar
    42    22    45    1
    43    23    24    1
    44    23    28   ar
    45    24    25    1
    46    24    26    1
    47    24    27    1
    48    28    46    1
    49    29    47    1
    50    29    48    1
    51    30    49    1
@<TRIPOS>SUBSTRUCTURE
     1 ZINC000536173632        1 TEMP              0 ****  ****    0 ROOT


##########                                Name:    ZINC000006915700
##########                DOCK_Rotatable_Bonds:                   5
##########                         Heavy_Atoms:                  26
##########                    Molecular_Weight:             369.447
##########                DOCK_Rotatable_Bonds:                   5
##########                       Formal_Charge:        -1.04308e-07
##########                     HBond_Acceptors:                   8
##########                        HBond_Donors:                   1
##########                         Heavy_Atoms:                  26
##########                          Grid_Score:          -31.934727
##########                     Grid_vdw_energy:          -33.818405
##########                      Grid_es_energy:            1.883678
##########           Internal_energy_repulsive:            6.629257

@<TRIPOS>MOLECULE
ZINC000006915700
 45 48 1 0 0
SMALL
USER_CHARGES


@<TRIPOS>ATOM
      1 C1         -8.7134    1.5588   67.2020 C.3     1  <0>        -0.1200
      2 C2         -8.6532    1.2551   65.7271 C.ar    1  <0>        -0.0500
      3 C3         -9.1925    2.1472   64.8175 C.ar    1  <0>        -0.1300
      4 C4         -9.1401    1.8750   63.4658 C.ar    1  <0>        -0.0600
      5 C5         -8.5419    0.6973   63.0172 C.ar    1  <0>        -0.0700
      6 C6         -8.4819    0.3993   61.5678 C.2     1  <0>         0.4400
      7 N7         -8.0870    1.3437   60.7240 N.2     1  <0>        -0.5200
      8 C8         -8.0275    1.0892   59.4133 C.2     1  <0>         0.3600
      9 C9         -7.6619    1.8539   58.3130 C.2     1  <0>        -0.3200
     10 C10        -7.7959    1.0548   57.1765 C.2     1  <0>         0.5500
     11 O11        -7.5599    1.3998   56.0301 O.2     1  <0>        -0.5200
     12 N12        -8.2293   -0.1621   57.5594 N.am    1  <0>        -0.5000
     13 N13        -8.3798   -0.1615   58.9496 N.pl3   1  <0>        -0.3300
     14 C14        -8.7818   -1.1117   59.8434 C.2     1  <0>         0.3900
     15 S15        -9.2388   -2.7193   59.2853 S.3     1  <0>         0.1200
     16 C16       -10.7594   -2.3201   58.3884 C.3     1  <0>        -0.1500
     17 C17       -11.8963   -2.1751   59.3669 C.2     1  <0>         0.5500
     18 O18       -11.6778   -1.7991   60.4991 O.2     1  <0>        -0.5200
     19 N19       -13.1559   -2.4635   58.9839 N.am    1  <0>        -0.6100
     20 C20       -14.3535   -2.3622   59.8307 C.3     1  <0>         0.0900
     21 C21       -15.5571   -2.8164   58.9783 C.3     1  <0>        -0.1300
     22 C22       -14.8947   -3.6857   57.8770 C.3     1  <0>        -0.1400
     23 C23       -13.5619   -2.9268   57.6445 C.3     1  <0>         0.1000
     24 N24        -8.8209   -0.8170   61.1335 N.2     1  <0>        -0.5600
     25 C25        -7.9999   -0.1981   63.9394 C.ar    1  <0>        -0.0500
     26 C26        -8.0538    0.0880   65.2881 C.ar    1  <0>        -0.1300
     27 H27        -7.8254    2.1194   67.4940 H       1  <0>         0.0800
     28 H28        -9.6033    2.1512   67.4150 H       1  <0>         0.0700
     29 H29        -8.7550    0.6257   67.7637 H       1  <0>         0.0700
     30 H30        -9.6557    3.0583   65.1661 H       1  <0>         0.1300
     31 H31        -9.5618    2.5718   62.7567 H       1  <0>         0.1300
     32 H32        -7.3333    2.8825   58.3331 H       1  <0>         0.1800
     33 H33        -8.4065   -0.9121   56.9703 H       1  <0>         0.4400
     34 H34       -10.6259   -1.3846   57.8453 H       1  <0>         0.1400
     35 H35       -10.9863   -3.1202   57.6838 H       1  <0>         0.1400
     36 H36       -14.2489   -3.0114   60.7000 H       1  <0>         0.0800
     37 H37       -14.4947   -1.3300   60.1512 H       1  <0>         0.0800
     38 H38       -16.2494   -3.4110   59.5745 H       1  <0>         0.0900
     39 H39       -16.0643   -1.9576   58.5387 H       1  <0>         0.0800
     40 H40       -14.7138   -4.6991   58.2353 H       1  <0>         0.0800
     41 H41       -15.4998   -3.6958   56.9704 H       1  <0>         0.0900
     42 H42       -13.7190   -2.0803   56.9760 H       1  <0>         0.0800
     43 H43       -12.8085   -3.5998   57.2351 H       1  <0>         0.0800
     44 H44        -7.5355   -1.1115   63.5981 H       1  <0>         0.1400
     45 H45        -7.6343   -0.6043   66.0030 H       1  <0>         0.1300
@<TRIPOS>BOND
     1     1     2    1
     2     1    27    1
     3     1    28    1
     4     1    29    1
     5     2    26   ar
     6     2     3   ar
     7     3     4   ar
     8     3    30    1
     9     4     5   ar
    10     4    31    1
    11     5     6    1
    12     5    25   ar
    13     6    24    1
    14     6     7    2
    15     7     8    1
    16     8    13    1
    17     8     9    2
    18     9    10    1
    19     9    32    1
    20    10    11    2
    21    10    12   am
    22    12    13    1
    23    12    33    1
    24    13    14    1
    25    14    15    1
    26    14    24    2
    27    15    16    1
    28    16    17    1
    29    16    34    1
    30    16    35    1
    31    17    18    2
    32    17    19   am
    33    19    23    1
    34    19    20    1
    35    20    21    1
    36    20    36    1
    37    20    37    1
    38    21    22    1
    39    21    38    1
    40    21    39    1
    41    22    23    1
    42    22    40    1
    43    22    41    1
    44    23    42    1
    45    23    43    1
    46    25    26   ar
    47    25    44    1
    48    26    45    1
@<TRIPOS>SUBSTRUCTURE
     1 <0>         1 TEMP              0 ****  ****    0 ROOT


##########                                Name:    ZINC000438893617
##########                DOCK_Rotatable_Bonds:                   5
##########                         Heavy_Atoms:                  29
##########                    Molecular_Weight:             412.596
##########                DOCK_Rotatable_Bonds:                   5
##########                       Formal_Charge:           0.0600001
##########                     HBond_Acceptors:                   5
##########                        HBond_Donors:                   0
##########                         Heavy_Atoms:                  29
##########                          Grid_Score:          -31.922846
##########                     Grid_vdw_energy:          -29.977673
##########                      Grid_es_energy:           -1.945173
##########           Internal_energy_repulsive:          168.475723

@<TRIPOS>MOLECULE
ZINC000438893617
 61 66 1 0 0
SMALL
USER_CHARGES


@<TRIPOS>ATOM
      1 C1        -11.2580   -2.8865   57.0066 C.3     1  ZINC000438893617   -0.1000
      2 C2        -11.8835   -2.3457   58.2664 C.2     1  ZINC000438893617   -0.0900
      3 C3        -11.2060   -1.6007   59.1412 C.2     1  ZINC000438893617   -0.1600
      4 C4         -9.7595   -1.2004   59.0048 C.3     1  ZINC000438893617   -0.0400
      5 H5         -9.1906   -1.7437   58.2504 H       1  ZINC000438893617    0.1400
      6 C6         -9.0214   -0.7746   60.2755 C.3     1  ZINC000438893617   -0.1400
      7 C7         -9.4100    0.2722   59.2285 C.3     1  ZINC000438893617   -0.1800
      8 H8        -10.2260    0.9515   59.4747 H       1  ZINC000438893617    0.1300
      9 C9         -8.3049    0.8609   58.3897 C.2     1  ZINC000438893617    0.5500
     10 O10        -7.1701    0.8911   58.8165 O.2     1  ZINC000438893617   -0.5300
     11 N11        -8.5778    1.3536   57.1653 N.am    1  ZINC000438893617   -0.6100
     12 C12        -7.5090    1.9233   56.3330 C.3     1  ZINC000438893617    0.0900
     13 C13        -7.5022    1.1995   54.9808 C.3     1  ZINC000438893617    0.1000
     14 N14        -8.8740    1.1760   54.4539 N.am    1  ZINC000438893617   -0.6100
     15 C15        -9.1468    1.6679   53.2290 C.2     1  ZINC000438893617    0.5300
     16 O16       -10.2827    1.6430   52.8048 O.2     1  ZINC000438893617   -0.5300
     17 C17        -8.0403    2.2487   52.3867 C.3     1  ZINC000438893617   -0.0700
     18 C18        -7.4375    3.4598   53.1012 C.3     1  ZINC000438893617   -0.1100
     19 C19        -6.3141    4.0494   52.2461 C.3     1  ZINC000438893617   -0.0800
     20 C20        -6.8786    4.4847   50.8923 C.3     1  ZINC000438893617   -0.1100
     21 C21        -7.4813    3.2735   50.1778 C.3     1  ZINC000438893617   -0.0800
     22 C22        -6.3964    2.2166   49.9619 C.3     1  ZINC000438893617   -0.1100
     23 C23        -5.8319    1.7813   51.3157 C.3     1  ZINC000438893617   -0.0900
     24 C24        -5.2290    2.9926   52.0302 C.3     1  ZINC000438893617   -0.1100
     25 C25        -6.9553    1.1917   52.1709 C.3     1  ZINC000438893617   -0.0900
     26 C26        -8.6047    2.6840   51.0329 C.3     1  ZINC000438893617   -0.1200
     27 C27        -9.9429    0.6063   55.2862 C.3     1  ZINC000438893617    0.0700
     28 C28        -9.9486    1.3250   56.6361 C.3     1  ZINC000438893617    0.1000
     29 S29       -12.2592   -1.1565   60.4780 S.3     1  ZINC000438893617    0.1000
     30 C30       -13.6000   -2.0334   59.7522 C.2     1  ZINC000438893617   -0.2100
     31 C31       -13.2062   -2.5796   58.6008 C.2     1  ZINC000438893617   -0.1300
     32 H32       -11.3854   -2.1654   56.1992 H       1  ZINC000438893617    0.0700
     33 H33       -10.1950   -3.0601   57.1742 H       1  ZINC000438893617    0.0700
     34 H34       -11.7411   -3.8251   56.7350 H       1  ZINC000438893617    0.0700
     35 H35        -9.5820   -0.7841   61.2102 H       1  ZINC000438893617    0.1100
     36 H36        -7.9667   -1.0376   60.3570 H       1  ZINC000438893617    0.1100
     37 H37        -7.6934    2.9864   56.1779 H       1  ZINC000438893617    0.0800
     38 H38        -6.5473    1.7846   56.8269 H       1  ZINC000438893617    0.1000
     39 H39        -6.8521    1.7301   54.2851 H       1  ZINC000438893617    0.1100
     40 H40        -7.1441    0.1788   55.1141 H       1  ZINC000438893617    0.0700
     41 H41        -8.2105    4.2128   53.2550 H       1  ZINC000438893617    0.0800
     42 H42        -7.0353    3.1497   54.0657 H       1  ZINC000438893617    0.0700
     43 H43        -5.8847    4.9124   52.7551 H       1  ZINC000438893617    0.0800
     44 H44        -7.6516    5.2377   51.0460 H       1  ZINC000438893617    0.0600
     45 H45        -6.0783    4.9048   50.2831 H       1  ZINC000438893617    0.0700
     46 H46        -7.8835    3.5837   49.2133 H       1  ZINC000438893617    0.0800
     47 H47        -6.8257    1.3537   49.4529 H       1  ZINC000438893617    0.0600
     48 H48        -5.5961    2.6366   49.3527 H       1  ZINC000438893617    0.0700
     49 H49        -5.0589    1.0283   51.1620 H       1  ZINC000438893617    0.0700
     50 H50        -4.4288    3.4126   51.4210 H       1  ZINC000438893617    0.0700
     51 H51        -4.8269    2.6824   52.9947 H       1  ZINC000438893617    0.0600
     52 H52        -6.5531    0.8816   53.1354 H       1  ZINC000438893617    0.0700
     53 H53        -7.3848    0.3288   51.6619 H       1  ZINC000438893617    0.0700
     54 H54        -9.0342    1.8210   50.5239 H       1  ZINC000438893617    0.0700
     55 H55        -9.3777    3.4368   51.1867 H       1  ZINC000438893617    0.0800
     56 H56       -10.9045    0.7451   54.7922 H       1  ZINC000438893617    0.1300
     57 H57        -9.7584   -0.4568   55.4412 H       1  ZINC000438893617    0.0800
     58 H58       -10.5991    0.7935   57.3307 H       1  ZINC000438893617    0.1100
     59 H59       -10.3059    2.3465   56.5052 H       1  ZINC000438893617    0.0700
     60 H60       -14.5917   -2.1135   60.1724 H       1  ZINC000438893617    0.1700
     61 H61       -13.8671   -3.1667   57.9803 H       1  ZINC000438893617    0.1400
@<TRIPOS>BOND
     1     1     2    1
     2     1    32    1
     3     1    33    1
     4     1    34    1
     5     2    31    1
     6     2     3    2
     7     3     4    1
     8     3    29    1
     9     4     5    1
    10     4     7    1
    11     4     6    1
    12     6     7    1
    13     6    35    1
    14     6    36    1
    15     7     8    1
    16     7     9    1
    17     9    10    2
    18     9    11   am
    19    11    28    1
    20    11    12    1
    21    12    13    1
    22    12    37    1
    23    12    38    1
    24    13    14    1
    25    13    39    1
    26    13    40    1
    27    14    15   am
    28    14    27    1
    29    15    16    2
    30    15    17    1
    31    17    25    1
    32    17    26    1
    33    17    18    1
    34    18    19    1
    35    18    41    1
    36    18    42    1
    37    19    24    1
    38    19    20    1
    39    19    43    1
    40    20    21    1
    41    20    44    1
    42    20    45    1
    43    21    22    1
    44    21    26    1
    45    21    46    1
    46    22    23    1
    47    22    47    1
    48    22    48    1
    49    23    24    1
    50    23    25    1
    51    23    49    1
    52    24    50    1
    53    24    51    1
    54    25    52    1
    55    25    53    1
    56    26    54    1
    57    26    55    1
    58    27    28    1
    59    27    56    1
    60    27    57    1
    61    28    58    1
    62    28    59    1
    63    29    30    1
    64    30    31    2
    65    30    60    1
    66    31    61    1
@<TRIPOS>SUBSTRUCTURE
     1 ZINC000438893617        1 TEMP              0 ****  ****    0 ROOT


##########                                Name:    ZINC000186105981
##########                DOCK_Rotatable_Bonds:                   6
##########                         Heavy_Atoms:                  26
##########                    Molecular_Weight:             396.873
##########                DOCK_Rotatable_Bonds:                   6
##########                       Formal_Charge:          -0.0400003
##########                     HBond_Acceptors:                   9
##########                        HBond_Donors:                   1
##########                         Heavy_Atoms:                  26
##########                          Grid_Score:          -31.920982
##########                     Grid_vdw_energy:          -31.809744
##########                      Grid_es_energy:           -0.111238
##########           Internal_energy_repulsive:           19.711586

@<TRIPOS>MOLECULE
ZINC000186105981
 44 46 1 0 0
SMALL
USER_CHARGES


@<TRIPOS>ATOM
      1 C1         -9.5082   -3.4622   58.9771 C.3     1  ZINC000186105981   -0.1400
      2 C2        -10.6908   -2.4978   58.8663 C.3     1  ZINC000186105981   -0.1100
      3 C3        -10.1720   -1.0826   58.6034 C.3     1  ZINC000186105981   -0.1600
      4 C4        -11.5963   -2.9316   57.7119 C.3     1  ZINC000186105981    0.1600
      5 H5        -11.3970   -3.9746   57.4660 H       1  ZINC000186105981    0.1200
      6 C6        -11.3212   -2.0699   56.5065 C.2     1  ZINC000186105981    0.4900
      7 O7        -11.9820   -1.0718   56.3110 O.2     1  ZINC000186105981   -0.4300
      8 N8        -10.3409   -2.4082   55.6457 N.am    1  ZINC000186105981   -0.6300
      9 C9        -10.0873   -1.6136   54.5342 C.2     1  ZINC000186105981    0.2400
     10 N10       -10.6990   -1.6825   53.3862 N.2     1  ZINC000186105981   -0.2600
     11 N11       -10.3409   -0.8802   52.4816 N.2     1  ZINC000186105981   -0.2000
     12 C12        -9.3842   -0.0400   52.7613 C.2     1  ZINC000186105981    0.0300
     13 C13        -8.8226    0.9759   51.8464 C.ar    1  ZINC000186105981   -0.0500
     14 C14        -7.6451    0.7119   51.1418 C.ar    1  ZINC000186105981    0.1300
     15 F15        -7.0155   -0.4737   51.2947 F       1  ZINC000186105981   -0.1200
     16 C16        -7.1264    1.6670   50.2877 C.ar    1  ZINC000186105981   -0.1400
     17 C17        -7.7702    2.8808   50.1300 C.ar    1  ZINC000186105981   -0.0600
     18 C18        -8.9363    3.1486   50.8250 C.ar    1  ZINC000186105981   -0.1200
     19 C19        -9.4694    2.2022   51.6773 C.ar    1  ZINC000186105981    0.0200
     20 Cl20      -10.9328    2.5410   52.5475 Cl      1  ZINC000186105981   -0.0100
     21 S21        -8.8845   -0.3265   54.4293 S.3     1  ZINC000186105981    0.1200
     22 N22       -12.9986   -2.7828   58.1087 N.am    1  ZINC000186105981   -0.6100
     23 C23       -13.5024   -1.7204   58.9872 C.3     1  ZINC000186105981    0.1000
     24 C24       -15.0319   -1.6979   58.7713 C.3     1  ZINC000186105981   -0.1300
     25 C25       -15.3059   -3.1464   58.3050 C.3     1  ZINC000186105981   -0.1600
     26 C26       -13.9903   -3.5982   57.7104 C.2     1  ZINC000186105981    0.5200
     27 O27       -13.8494   -4.5605   56.9858 O.2     1  ZINC000186105981   -0.5000
     28 H28        -8.8632   -3.1530   59.7995 H       1  ZINC000186105981    0.0600
     29 H29        -9.8778   -4.4703   59.1643 H       1  ZINC000186105981    0.0600
     30 H30        -8.9412   -3.4502   58.0462 H       1  ZINC000186105981    0.0600
     31 H31       -11.2579   -2.5098   59.7971 H       1  ZINC000186105981    0.0900
     32 H32        -9.6857   -1.0492   57.6284 H       1  ZINC000186105981    0.0600
     33 H33       -11.0063   -0.3813   58.6175 H       1  ZINC000186105981    0.0600
     34 H34        -9.4544   -0.8092   59.3769 H       1  ZINC000186105981    0.0700
     35 H35        -9.8124   -3.2065   55.8021 H       1  ZINC000186105981    0.4200
     36 H36        -6.2163    1.4650   49.7425 H       1  ZINC000186105981    0.1500
     37 H37        -7.3606    3.6233   49.4613 H       1  ZINC000186105981    0.1500
     38 H38        -9.4332    4.0989   50.6970 H       1  ZINC000186105981    0.1500
     39 H39       -13.2716   -1.9501   60.0274 H       1  ZINC000186105981    0.0700
     40 H40       -13.0676   -0.7611   58.7065 H       1  ZINC000186105981    0.0800
     41 H41       -15.5543   -1.4828   59.7034 H       1  ZINC000186105981    0.0900
     42 H42       -15.3061   -0.9806   57.9978 H       1  ZINC000186105981    0.0800
     43 H43       -15.5816   -3.7743   59.1523 H       1  ZINC000186105981    0.1100
     44 H44       -16.0891   -3.1615   57.5469 H       1  ZINC000186105981    0.1000
@<TRIPOS>BOND
     1     1     2    1
     2     1    28    1
     3     1    29    1
     4     1    30    1
     5     2     3    1
     6     2     4    1
     7     2    31    1
     8     3    32    1
     9     3    33    1
    10     3    34    1
    11     4     5    1
    12     4     6    1
    13     4    22    1
    14     6     7    2
    15     6     8   am
    16     8     9    1
    17     8    35    1
    18     9    21    1
    19     9    10    2
    20    10    11    1
    21    11    12    2
    22    12    13    1
    23    12    21    1
    24    13    19   ar
    25    13    14   ar
    26    14    15    1
    27    14    16   ar
    28    16    17   ar
    29    16    36    1
    30    17    18   ar
    31    17    37    1
    32    18    19   ar
    33    18    38    1
    34    19    20    1
    35    22    26   am
    36    22    23    1
    37    23    24    1
    38    23    39    1
    39    23    40    1
    40    24    25    1
    41    24    41    1
    42    24    42    1
    43    25    26    1
    44    25    43    1
    45    25    44    1
    46    26    27    2
@<TRIPOS>SUBSTRUCTURE
     1 ZINC000186105981        1 TEMP              0 ****  ****    0 ROOT


##########                                Name:    ZINC000265724350
##########                DOCK_Rotatable_Bonds:                   8
##########                         Heavy_Atoms:                  23
##########                    Molecular_Weight:              345.42
##########                DOCK_Rotatable_Bonds:                   8
##########                       Formal_Charge:          -0.0300002
##########                     HBond_Acceptors:                   9
##########                        HBond_Donors:                   2
##########                         Heavy_Atoms:                  23
##########                          Grid_Score:          -31.910061
##########                     Grid_vdw_energy:          -31.894075
##########                      Grid_es_energy:           -0.015985
##########           Internal_energy_repulsive:            5.209121

@<TRIPOS>MOLECULE
ZINC000265724350
 46 47 1 0 0
SMALL
USER_CHARGES


@<TRIPOS>ATOM
      1 C1         -8.6616   -0.8683   59.4835 C.3     1  ZINC000265724350    0.0800
      2 N2         -8.5858   -2.2854   59.1195 N.am    1  ZINC000265724350   -1.1100
      3 S3         -9.9745   -3.1694   58.9394 S.o2    1  ZINC000265724350    2.7200
      4 O4         -9.5791   -4.4411   58.4438 O.2     1  ZINC000265724350   -0.9300
      5 O5        -10.7169   -2.9993   60.1390 O.2     1  ZINC000265724350   -0.9300
      6 C6        -10.9156   -2.4071   57.6596 C.2     1  ZINC000265724350   -0.5600
      7 C7        -12.2638   -2.4073   57.5676 C.2     1  ZINC000265724350   -0.0900
      8 C8        -12.5986   -1.6929   56.4066 C.2     1  ZINC000265724350   -0.1400
      9 C9        -11.4231   -1.2880   55.8422 C.2     1  ZINC000265724350   -0.0200
     10 C10       -11.2833   -0.5074   54.6084 C.2     1  ZINC000265724350    0.6000
     11 O11       -12.2458    0.0758   54.1450 O.2     1  ZINC000265724350   -0.5000
     12 N12       -10.0891   -0.4359   53.9878 N.am    1  ZINC000265724350   -0.7100
     13 C13        -9.9492    0.3452   52.7563 C.3     1  ZINC000265724350    0.1200
     14 C14        -8.4693    0.6422   52.5062 C.3     1  ZINC000265724350   -0.1100
     15 H15        -8.0103    1.0025   53.4268 H       1  ZINC000265724350    0.0800
     16 C16        -7.7626   -0.6360   52.0504 C.3     1  ZINC000265724350   -0.1400
     17 C17        -8.3403    1.7114   51.4194 C.3     1  ZINC000265724350    0.0600
     18 N18        -6.9387    2.1393   51.3175 N.3     1  ZINC000265724350   -0.5300
     19 C19        -6.7831    3.5390   51.7389 C.3     1  ZINC000265724350    0.0100
     20 C20        -5.3028    3.9244   51.6741 C.3     1  ZINC000265724350    0.0600
     21 O21        -4.8147    3.7006   50.3486 O.3     1  ZINC000265724350   -0.3900
     22 C22        -4.9501    2.3474   49.9060 C.3     1  ZINC000265724350    0.0600
     23 C23        -6.4268    1.9461   49.9529 C.3     1  ZINC000265724350    0.0200
     24 O24       -10.4129   -1.7271   56.6211 O.3     1  ZINC000265724350   -0.1100
     25 H25        -7.6547   -0.4572   59.5554 H       1  ZINC000265724350    0.0900
     26 H26        -9.2215   -0.3267   58.7209 H       1  ZINC000265724350    0.0600
     27 H27        -9.1652   -0.7665   60.4448 H       1  ZINC000265724350    0.0700
     28 H28        -7.7222   -2.7058   58.9841 H       1  ZINC000265724350    0.4200
     29 H29       -12.9539   -2.8701   58.2574 H       1  ZINC000265724350    0.1800
     30 H30       -13.5933   -1.5008   56.0323 H       1  ZINC000265724350    0.1700
     31 H31        -9.3224   -0.9018   54.3564 H       1  ZINC000265724350    0.4100
     32 H32       -10.3526   -0.2227   51.9179 H       1  ZINC000265724350    0.0800
     33 H33       -10.4960    1.2827   52.8567 H       1  ZINC000265724350    0.0700
     34 H34        -7.8545   -1.3978   52.8246 H       1  ZINC000265724350    0.0500
     35 H35        -8.2215   -0.9964   51.1297 H       1  ZINC000265724350    0.0600
     36 H36        -6.7083   -0.4245   51.8722 H       1  ZINC000265724350    0.0700
     37 H37        -8.6648    1.2994   50.4640 H       1  ZINC000265724350    0.0800
     38 H38        -8.9638    2.5677   51.6765 H       1  ZINC000265724350    0.0400
     39 H39        -7.3568    4.1852   51.0745 H       1  ZINC000265724350    0.0400
     40 H40        -7.1447    3.6539   52.7608 H       1  ZINC000265724350    0.0900
     41 H41        -5.1894    4.9776   51.9309 H       1  ZINC000265724350    0.1000
     42 H42        -4.7368    3.3145   52.3783 H       1  ZINC000265724350    0.0600
     43 H43        -4.5815    2.2602   48.8840 H       1  ZINC000265724350    0.1000
     44 H44        -4.3738    1.6917   50.5587 H       1  ZINC000265724350    0.0600
     45 H45        -6.5283    0.8982   49.6710 H       1  ZINC000265724350    0.0900
     46 H46        -6.9948    2.5668   49.2599 H       1  ZINC000265724350    0.0400
@<TRIPOS>BOND
     1     1     2    1
     2     1    25    1
     3     1    26    1
     4     1    27    1
     5     2     3   am
     6     2    28    1
     7     3     4    2
     8     3     5    2
     9     3     6    1
    10     6    24    1
    11     6     7    2
    12     7     8    1
    13     7    29    1
    14     8     9    2
    15     8    30    1
    16     9    10    1
    17     9    24    1
    18    10    11    2
    19    10    12   am
    20    12    13    1
    21    12    31    1
    22    13    14    1
    23    13    32    1
    24    13    33    1
    25    14    15    1
    26    14    16    1
    27    14    17    1
    28    16    34    1
    29    16    35    1
    30    16    36    1
    31    17    18    1
    32    17    37    1
    33    17    38    1
    34    18    23    1
    35    18    19    1
    36    19    20    1
    37    19    39    1
    38    19    40    1
    39    20    21    1
    40    20    41    1
    41    20    42    1
    42    21    22    1
    43    22    23    1
    44    22    43    1
    45    22    44    1
    46    23    45    1
    47    23    46    1
@<TRIPOS>SUBSTRUCTURE
     1 ZINC000265724350        1 TEMP              0 ****  ****    0 ROOT


##########                                Name:    ZINC000269287897
##########                DOCK_Rotatable_Bonds:                   8
##########                         Heavy_Atoms:                  23
##########                    Molecular_Weight:             385.301
##########                DOCK_Rotatable_Bonds:                   8
##########                       Formal_Charge:           0.0300002
##########                     HBond_Acceptors:                   5
##########                        HBond_Donors:                   1
##########                         Heavy_Atoms:                  23
##########                          Grid_Score:          -31.909721
##########                     Grid_vdw_energy:          -28.730982
##########                      Grid_es_energy:           -3.178739
##########           Internal_energy_repulsive:           11.374040

@<TRIPOS>MOLECULE
ZINC000269287897
 48 49 1 0 0
SMALL
USER_CHARGES


@<TRIPOS>ATOM
      1 C1         -5.6665    0.6192   66.7110 C.3     1  ZINC000269287897    0.0300
      2 O2         -6.7304   -0.3106   66.4974 O.3     1  ZINC000269287897   -0.3800
      3 C3         -8.0086    0.1593   66.9301 C.3     1  ZINC000269287897    0.0600
      4 C4         -8.5074    1.2394   65.9681 C.3     1  ZINC000269287897    0.0600
      5 O5         -9.1168    0.6216   64.8328 O.3     1  ZINC000269287897   -0.3800
      6 C6         -8.2266    0.4189   63.7336 C.3     1  ZINC000269287897    0.0700
      7 C7         -9.0291    0.0159   62.4949 C.3     1  ZINC000269287897   -0.1000
      8 H8         -9.3392   -1.0273   62.5552 H       1  ZINC000269287897    0.1000
      9 C9        -10.2526    0.9493   62.2969 C.3     1  ZINC000269287897   -0.1200
     10 C10       -10.5009    0.8758   60.7755 C.3     1  ZINC000269287897    0.1000
     11 N11        -9.2413    0.4504   60.1478 N.am    1  ZINC000269287897   -0.6300
     12 C12        -9.0499    0.2486   58.8291 C.2     1  ZINC000269287897    0.7300
     13 O13        -7.9609   -0.1054   58.4200 O.2     1  ZINC000269287897   -0.5600
     14 N14       -10.0654    0.4393   57.9638 N.am    1  ZINC000269287897   -0.6900
     15 C15        -9.8665    0.2297   56.5940 C.ar    1  ZINC000269287897    0.1800
     16 C16        -9.2422    1.2021   55.8250 C.ar    1  ZINC000269287897   -0.0600
     17 C17        -8.7774    2.4855   56.4638 C.3     1  ZINC000269287897   -0.1000
     18 C18        -9.0469    0.9922   54.4735 C.ar    1  ZINC000269287897   -0.0900
     19 C19        -9.4723   -0.1849   53.8864 C.ar    1  ZINC000269287897   -0.0800
     20 C20        -9.2575   -0.4101   52.4119 C.3     1  ZINC000269287897   -0.1100
     21 C21       -10.0944   -1.1565   54.6493 C.ar    1  ZINC000269287897   -0.0900
     22 C22       -10.2885   -0.9549   56.0023 C.ar    1  ZINC000269287897   -0.1000
     23 Br23      -11.1385   -2.2837   57.0452 Br      1  ZINC000269287897   -0.0500
     24 C24        -8.2217    0.2812   61.1997 C.3     1  ZINC000269287897    0.1400
     25 H25        -5.8729    1.5393   66.1644 H       1  ZINC000269287897    0.0400
     26 H26        -5.5847    0.8394   67.7754 H       1  ZINC000269287897    0.0400
     27 H27        -4.7304    0.1880   66.3563 H       1  ZINC000269287897    0.0900
     28 H28        -8.7155   -0.6703   66.9429 H       1  ZINC000269287897    0.0600
     29 H29        -7.9215    0.5779   67.9327 H       1  ZINC000269287897    0.0600
     30 H30        -9.2387    1.8684   66.4757 H       1  ZINC000269287897    0.0700
     31 H31        -7.6666    1.8511   65.6412 H       1  ZINC000269287897    0.0600
     32 H32        -7.6840    1.3423   63.5304 H       1  ZINC000269287897    0.0600
     33 H33        -7.5183   -0.3719   63.9807 H       1  ZINC000269287897    0.0500
     34 H34       -11.1160    0.5752   62.8471 H       1  ZINC000269287897    0.0900
     35 H35       -10.0131    1.9686   62.5998 H       1  ZINC000269287897    0.0800
     36 H36       -11.2851    0.1494   60.5625 H       1  ZINC000269287897    0.0700
     37 H37       -10.7896    1.8572   60.3992 H       1  ZINC000269287897    0.0700
     38 H38       -10.9341    0.7217   58.2901 H       1  ZINC000269287897    0.4100
     39 H39        -7.7133    2.4146   56.6890 H       1  ZINC000269287897    0.0900
     40 H40        -8.9493    3.3154   55.7785 H       1  ZINC000269287897    0.0600
     41 H41        -9.3335    2.6545   57.3859 H       1  ZINC000269287897    0.0600
     42 H42        -8.5614    1.7487   53.8748 H       1  ZINC000269287897    0.1300
     43 H43        -8.2932   -0.8934   52.2549 H       1  ZINC000269287897    0.0700
     44 H44       -10.0511   -1.0478   52.0223 H       1  ZINC000269287897    0.0700
     45 H45        -9.2729    0.5477   51.8920 H       1  ZINC000269287897    0.0700
     46 H46       -10.4257   -2.0749   54.1877 H       1  ZINC000269287897    0.1400
     47 H47        -7.6285    1.1898   61.3027 H       1  ZINC000269287897    0.0700
     48 H48        -7.5786   -0.5688   60.9715 H       1  ZINC000269287897    0.0900
@<TRIPOS>BOND
     1     1     2    1
     2     1    25    1
     3     1    26    1
     4     1    27    1
     5     2     3    1
     6     3     4    1
     7     3    28    1
     8     3    29    1
     9     4     5    1
    10     4    30    1
    11     4    31    1
    12     5     6    1
    13     6     7    1
    14     6    32    1
    15     6    33    1
    16     7     8    1
    17     7    24    1
    18     7     9    1
    19     9    10    1
    20     9    34    1
    21     9    35    1
    22    10    11    1
    23    10    36    1
    24    10    37    1
    25    11    12   am
    26    11    24    1
    27    12    13    2
    28    12    14   am
    29    14    15    1
    30    14    38    1
    31    15    22   ar
    32    15    16   ar
    33    16    17    1
    34    16    18   ar
    35    17    39    1
    36    17    40    1
    37    17    41    1
    38    18    19   ar
    39    18    42    1
    40    19    20    1
    41    19    21   ar
    42    20    43    1
    43    20    44    1
    44    20    45    1
    45    21    22   ar
    46    21    46    1
    47    22    23    1
    48    24    47    1
    49    24    48    1
@<TRIPOS>SUBSTRUCTURE
     1 ZINC000269287897        1 TEMP              0 ****  ****    0 ROOT


##########                                Name:    ZINC000668548901
##########                DOCK_Rotatable_Bonds:                   9
##########                         Heavy_Atoms:                  26
##########                    Molecular_Weight:             374.464
##########                DOCK_Rotatable_Bonds:                   9
##########                       Formal_Charge:         3.53903e-07
##########                     HBond_Acceptors:                   8
##########                        HBond_Donors:                   3
##########                         Heavy_Atoms:                  26
##########                          Grid_Score:          -31.909311
##########                     Grid_vdw_energy:          -31.421522
##########                      Grid_es_energy:           -0.487788
##########           Internal_energy_repulsive:           16.571640

@<TRIPOS>MOLECULE
ZINC000668548901
 48 50 1 0 0
SMALL
USER_CHARGES


@<TRIPOS>ATOM
      1 O1         -9.6402    1.2808   54.0475 O.2     1  ZINC000668548901   -0.5700
      2 C2         -9.2681    0.3855   53.3139 C.2     1  ZINC000668548901    0.7100
      3 N3         -9.7585   -0.8603   53.4688 N.am    1  ZINC000668548901   -0.6800
      4 C4        -10.6893   -1.1238   54.4747 C.ar    1  ZINC000668548901    0.2200
      5 C5        -11.9065   -0.4420   54.5193 C.ar    1  ZINC000668548901   -0.1700
      6 C6        -12.8020   -0.7279   55.5275 C.ar    1  ZINC000668548901    0.1200
      7 N7        -12.5228   -1.6338   56.4463 N.ar    1  ZINC000668548901   -0.4300
      8 C8        -11.3791   -2.3041   56.4413 C.ar    1  ZINC000668548901    0.1100
      9 S9        -11.0646   -3.5017   57.6948 S.3     1  ZINC000668548901    0.0900
     10 C10       -10.1372   -2.5938   58.8867 C.ar    1  ZINC000668548901    0.0900
     11 C11       -10.7978   -1.9389   59.9210 C.ar    1  ZINC000668548901   -0.1500
     12 C12       -10.0573   -1.2302   60.8500 C.ar    1  ZINC000668548901   -0.0700
     13 C13        -8.6758   -1.2003   60.7129 C.ar    1  ZINC000668548901   -0.1700
     14 C14        -8.0857   -1.8735   59.6613 C.ar    1  ZINC000668548901    0.1000
     15 N15        -8.8167   -2.5456   58.7930 N.ar    1  ZINC000668548901   -0.4200
     16 C16       -10.4292   -2.0764   55.4544 C.ar    1  ZINC000668548901   -0.1800
     17 N17        -8.3692    0.6400   52.3425 N.am    1  ZINC000668548901   -0.7200
     18 C18        -7.8362    1.9941   52.1742 C.3     1  ZINC000668548901    0.1700
     19 H19        -8.0043    2.5667   53.0864 H       1  ZINC000668548901    0.1000
     20 C20        -8.5447    2.6794   51.0040 C.3     1  ZINC000668548901    0.0600
     21 O21        -9.9560    2.6656   51.2276 O.3     1  ZINC000668548901   -0.5700
     22 C22        -6.3349    1.9194   51.8883 C.3     1  ZINC000668548901   -0.1300
     23 H23        -5.8282    1.4401   52.7259 H       1  ZINC000668548901    0.1000
     24 C24        -5.7796    3.3337   51.6952 C.3     1  ZINC000668548901   -0.1200
     25 C25        -4.2940    3.2420   51.3332 C.3     1  ZINC000668548901   -0.1600
     26 C26        -4.1349    2.3790   50.0787 C.3     1  ZINC000668548901    0.0600
     27 O27        -4.6993    1.0877   50.3158 O.3     1  ZINC000668548901   -0.3800
     28 C28        -6.0969    1.1061   50.6133 C.3     1  ZINC000668548901    0.0700
     29 H29        -9.4646   -1.5737   52.8809 H       1  ZINC000668548901    0.4100
     30 H30       -12.1438    0.3013   53.7726 H       1  ZINC000668548901    0.1500
     31 H31       -13.7452   -0.2033   55.5664 H       1  ZINC000668548901    0.1600
     32 H32       -11.8742   -1.9827   59.9975 H       1  ZINC000668548901    0.1400
     33 H33       -10.5427   -0.7115   61.6635 H       1  ZINC000668548901    0.1400
     34 H34        -8.0691   -0.6558   61.4211 H       1  ZINC000668548901    0.1400
     35 H35        -7.0116   -1.8525   59.5507 H       1  ZINC000668548901    0.1600
     36 H36        -9.4984   -2.6240   55.4529 H       1  ZINC000668548901    0.1400
     37 H37        -8.0753   -0.0734   51.7547 H       1  ZINC000668548901    0.4000
     38 H38        -8.1996    3.7102   50.9238 H       1  ZINC000668548901    0.0500
     39 H39        -8.3179    2.1474   50.0801 H       1  ZINC000668548901    0.0600
     40 H40       -10.4699    3.0852   50.5240 H       1  ZINC000668548901    0.3800
     41 H41        -6.3209    3.8314   50.8906 H       1  ZINC000668548901    0.0700
     42 H42        -5.8954    3.9002   52.6192 H       1  ZINC000668548901    0.0700
     43 H43        -3.9039    4.2413   51.1397 H       1  ZINC000668548901    0.0800
     44 H44        -3.7452    2.7893   52.1588 H       1  ZINC000668548901    0.0700
     45 H45        -4.6502    2.8532   49.2434 H       1  ZINC000668548901    0.0500
     46 H46        -3.0762    2.2750   49.8410 H       1  ZINC000668548901    0.1000
     47 H47        -6.4507    0.0856   50.7598 H       1  ZINC000668548901    0.1000
     48 H48        -6.6388    1.5636   49.7856 H       1  ZINC000668548901    0.0500
@<TRIPOS>BOND
     1     1     2    2
     2     2     3   am
     3     2    17   am
     4     3     4    1
     5     3    29    1
     6     4    16   ar
     7     4     5   ar
     8     5     6   ar
     9     5    30    1
    10     6     7   ar
    11     6    31    1
    12     7     8   ar
    13     8     9    1
    14     8    16   ar
    15     9    10    1
    16    10    15   ar
    17    10    11   ar
    18    11    12   ar
    19    11    32    1
    20    12    13   ar
    21    12    33    1
    22    13    14   ar
    23    13    34    1
    24    14    15   ar
    25    14    35    1
    26    16    36    1
    27    17    18    1
    28    17    37    1
    29    18    19    1
    30    18    20    1
    31    18    22    1
    32    20    21    1
    33    20    38    1
    34    20    39    1
    35    21    40    1
    36    22    23    1
    37    22    28    1
    38    22    24    1
    39    24    25    1
    40    24    41    1
    41    24    42    1
    42    25    26    1
    43    25    43    1
    44    25    44    1
    45    26    27    1
    46    26    45    1
    47    26    46    1
    48    27    28    1
    49    28    47    1
    50    28    48    1
@<TRIPOS>SUBSTRUCTURE
     1 ZINC000668548901        1 TEMP              0 ****  ****    0 ROOT


##########                                Name:    ZINC000537799672
##########                DOCK_Rotatable_Bonds:                   9
##########                         Heavy_Atoms:                  29
##########                    Molecular_Weight:             401.478
##########                DOCK_Rotatable_Bonds:                   9
##########                       Formal_Charge:        -4.47035e-07
##########                     HBond_Acceptors:                   6
##########                        HBond_Donors:                   1
##########                         Heavy_Atoms:                  29
##########                          Grid_Score:          -31.903473
##########                     Grid_vdw_energy:          -31.711845
##########                      Grid_es_energy:           -0.191628
##########           Internal_energy_repulsive:           17.323509

@<TRIPOS>MOLECULE
ZINC000537799672
 57 59 1 0 0
SMALL
USER_CHARGES


@<TRIPOS>ATOM
      1 C1         -9.5062   -3.2932   59.2145 C.3     1  ZINC000537799672    0.0300
      2 O2        -10.0058   -2.2704   58.3506 O.3     1  ZINC000537799672   -0.3800
      3 C3        -10.9284   -2.7406   57.3659 C.3     1  ZINC000537799672    0.1200
      4 H4        -10.6372   -3.7401   57.0431 H       1  ZINC000537799672    0.0900
      5 C5        -12.3138   -2.7875   57.9573 C.ar    1  ZINC000537799672   -0.1300
      6 C6        -13.3468   -3.3750   57.2510 C.ar    1  ZINC000537799672   -0.0600
      7 C7        -14.6176   -3.4186   57.7923 C.ar    1  ZINC000537799672   -0.1500
      8 C8        -14.8560   -2.8737   59.0426 C.ar    1  ZINC000537799672    0.1000
      9 F9        -16.0978   -2.9160   59.5729 F       1  ZINC000537799672   -0.1400
     10 C10       -13.8205   -2.2858   59.7493 C.ar    1  ZINC000537799672   -0.1500
     11 C11       -12.5495   -2.2477   59.2081 C.ar    1  ZINC000537799672   -0.0800
     12 C12       -10.9188   -1.7936   56.1643 C.3     1  ZINC000537799672    0.1600
     13 H13       -11.8402   -1.2115   56.1529 H       1  ZINC000537799672    0.1000
     14 C14       -10.8143   -2.6085   54.8736 C.3     1  ZINC000537799672   -0.1600
     15 N15        -9.7708   -0.8889   56.2647 N.am    1  ZINC000537799672   -0.7100
     16 C16        -9.8922    0.2838   56.9176 C.2     1  ZINC000537799672    0.5600
     17 O17       -10.9536    0.5904   57.4242 O.2     1  ZINC000537799672   -0.5400
     18 C18        -8.7342    1.1976   57.0174 C.ar    1  ZINC000537799672   -0.1400
     19 C19        -8.0354    1.3145   58.2199 C.ar    1  ZINC000537799672   -0.0800
     20 C20        -6.9553    2.1687   58.3063 C.ar    1  ZINC000537799672   -0.1300
     21 C21        -6.5648    2.9086   57.2045 C.ar    1  ZINC000537799672   -0.0900
     22 C22        -7.2536    2.7977   56.0095 C.ar    1  ZINC000537799672   -0.1100
     23 C23        -8.3314    1.9428   55.9079 C.ar    1  ZINC000537799672   -0.0300
     24 C24        -9.0801    1.8229   54.6055 C.3     1  ZINC000537799672    0.1100
     25 O25        -8.4922    2.6931   53.6364 O.3     1  ZINC000537799672   -0.3800
     26 C26        -7.5511    2.0510   52.7737 C.3     1  ZINC000537799672    0.0900
     27 C27        -8.2962    1.3516   51.6326 C.3     1  ZINC000537799672   -0.1800
     28 C28        -7.2774    0.7339   50.6713 C.3     1  ZINC000537799672    0.0600
     29 O29        -6.4058    1.7553   50.1823 O.3     1  ZINC000537799672   -0.3800
     30 C30        -5.6476    2.4120   51.2002 C.3     1  ZINC000537799672    0.0600
     31 C31        -6.6010    3.0971   52.1828 C.3     1  ZINC000537799672   -0.1500
     32 H32        -9.0555   -4.0853   58.6168 H       1  ZINC000537799672    0.0500
     33 H33        -8.7559   -2.8701   59.8824 H       1  ZINC000537799672    0.0900
     34 H34       -10.3263   -3.7042   59.8032 H       1  ZINC000537799672    0.0400
     35 H35       -13.1606   -3.8000   56.2757 H       1  ZINC000537799672    0.1300
     36 H36       -15.4245   -3.8771   57.2400 H       1  ZINC000537799672    0.1400
     37 H37       -14.0054   -1.8602   60.7246 H       1  ZINC000537799672    0.1400
     38 H38       -11.7416   -1.7896   59.7592 H       1  ZINC000537799672    0.1300
     39 H39       -11.6159   -3.3467   54.8441 H       1  ZINC000537799672    0.0700
     40 H40       -10.9021   -1.9425   54.0152 H       1  ZINC000537799672    0.0600
     41 H41        -9.8508   -3.1170   54.8419 H       1  ZINC000537799672    0.0700
     42 H42        -8.9234   -1.1340   55.8614 H       1  ZINC000537799672    0.4000
     43 H43        -8.3397    0.7379   59.0809 H       1  ZINC000537799672    0.1300
     44 H44        -6.4136    2.2601   59.2362 H       1  ZINC000537799672    0.1300
     45 H45        -5.7188    3.5760   57.2776 H       1  ZINC000537799672    0.1300
     46 H46        -6.9440    3.3784   55.1532 H       1  ZINC000537799672    0.1400
     47 H47        -9.0273    0.7940   54.2495 H       1  ZINC000537799672    0.0800
     48 H48       -10.1227    2.1012   54.7589 H       1  ZINC000537799672    0.0800
     49 H49        -6.9784    1.3171   53.3408 H       1  ZINC000537799672    0.0600
     50 H50        -8.9340    0.5674   52.0407 H       1  ZINC000537799672    0.0800
     51 H51        -8.9078    2.0782   51.0977 H       1  ZINC000537799672    0.0800
     52 H52        -6.6933   -0.0215   51.1969 H       1  ZINC000537799672    0.0500
     53 H53        -7.8011    0.2715   49.8346 H       1  ZINC000537799672    0.1000
     54 H54        -5.0422    1.6785   51.7328 H       1  ZINC000537799672    0.0500
     55 H55        -4.9971    3.1585   50.7445 H       1  ZINC000537799672    0.1000
     56 H56        -7.1783    3.8589   51.6589 H       1  ZINC000537799672    0.0800
     57 H57        -6.0263    3.5612   52.9843 H       1  ZINC000537799672    0.0800
@<TRIPOS>BOND
     1     1     2    1
     2     1    32    1
     3     1    33    1
     4     1    34    1
     5     2     3    1
     6     3     4    1
     7     3     5    1
     8     3    12    1
     9     5    11   ar
    10     5     6   ar
    11     6     7   ar
    12     6    35    1
    13     7     8   ar
    14     7    36    1
    15     8     9    1
    16     8    10   ar
    17    10    11   ar
    18    10    37    1
    19    11    38    1
    20    12    13    1
    21    12    14    1
    22    12    15    1
    23    14    39    1
    24    14    40    1
    25    14    41    1
    26    15    16   am
    27    15    42    1
    28    16    17    2
    29    16    18    1
    30    18    23   ar
    31    18    19   ar
    32    19    20   ar
    33    19    43    1
    34    20    21   ar
    35    20    44    1
    36    21    22   ar
    37    21    45    1
    38    22    23   ar
    39    22    46    1
    40    23    24    1
    41    24    25    1
    42    24    47    1
    43    24    48    1
    44    25    26    1
    45    26    31    1
    46    26    27    1
    47    26    49    1
    48    27    28    1
    49    27    50    1
    50    27    51    1
    51    28    29    1
    52    28    52    1
    53    28    53    1
    54    29    30    1
    55    30    31    1
    56    30    54    1
    57    30    55    1
    58    31    56    1
    59    31    57    1
@<TRIPOS>SUBSTRUCTURE
     1 ZINC000537799672        1 TEMP              0 ****  ****    0 ROOT


##########                                Name:    ZINC000655235556
##########                DOCK_Rotatable_Bonds:                   6
##########                         Heavy_Atoms:                  23
##########                    Molecular_Weight:             336.778
##########                DOCK_Rotatable_Bonds:                   6
##########                       Formal_Charge:         -0.00999996
##########                     HBond_Acceptors:                   8
##########                        HBond_Donors:                   2
##########                         Heavy_Atoms:                  23
##########                          Grid_Score:          -31.888155
##########                     Grid_vdw_energy:          -31.392078
##########                      Grid_es_energy:           -0.496077
##########           Internal_energy_repulsive:           10.064507

@<TRIPOS>MOLECULE
ZINC000655235556
 40 42 1 0 0
SMALL
USER_CHARGES


@<TRIPOS>ATOM
      1 C1         -0.6103    3.9891   52.1502 C.3     1  ZINC000655235556    0.0200
      2 O2         -1.7819    3.6052   51.4276 O.3     1  ZINC000655235556   -0.2700
      3 C3         -1.6479    2.6004   50.5263 C.ar    1  ZINC000655235556    0.2000
      4 C4         -0.3904    2.1073   50.2154 C.ar    1  ZINC000655235556   -0.2100
      5 C5         -0.2557    1.0828   49.2969 C.ar    1  ZINC000655235556    0.0300
      6 Cl6         1.3225    0.4702   48.9124 Cl      1  ZINC000655235556   -0.0500
      7 C7         -1.3742    0.5415   48.6815 C.ar    1  ZINC000655235556   -0.1600
      8 C8         -2.6311    1.0204   48.9795 C.ar    1  ZINC000655235556   -0.0300
      9 C9         -2.7815    2.0520   49.9095 C.ar    1  ZINC000655235556   -0.1700
     10 C10        -4.1244    2.5686   50.2330 C.2     1  ZINC000655235556    0.5700
     11 O11        -4.2926    3.7610   50.4025 O.2     1  ZINC000655235556   -0.5100
     12 N12        -5.1652    1.7192   50.3409 N.am    1  ZINC000655235556   -0.7300
     13 C13        -6.4996    2.2325   50.6606 C.3     1  ZINC000655235556    0.2100
     14 C14        -7.2933    1.1635   51.3664 C.2     1  ZINC000655235556    0.2600
     15 N15        -8.3567    1.3567   52.1037 N.2     1  ZINC000655235556   -0.5100
     16 C16        -8.8005    0.1906   52.5713 C.2     1  ZINC000655235556    0.2200
     17 C17       -10.0051    0.0039   53.4574 C.3     1  ZINC000655235556    0.1700
     18 H18       -10.7410    0.7803   53.2492 H       1  ZINC000655235556    0.1100
     19 C19        -9.5797    0.0693   54.9400 C.3     1  ZINC000655235556   -0.1400
     20 C20       -10.4596   -1.0364   55.5845 C.3     1  ZINC000655235556   -0.1500
     21 C21       -10.5235   -2.0702   54.4321 C.3     1  ZINC000655235556    0.0500
     22 O22       -10.5820   -1.2868   53.2273 O.3     1  ZINC000655235556   -0.3700
     23 N23        -8.0220   -0.7650   52.1361 N.2     1  ZINC000655235556   -0.2800
     24 N24        -7.0355   -0.1557   51.3437 N.pl3   1  ZINC000655235556   -0.4700
     25 H25        -0.2367    3.1358   52.7162 H       1  ZINC000655235556    0.0600
     26 H26         0.1551    4.3238   51.4500 H       1  ZINC000655235556    0.0600
     27 H27        -0.8556    4.8005   52.8355 H       1  ZINC000655235556    0.1100
     28 H28         0.4851    2.5241   50.6909 H       1  ZINC000655235556    0.1500
     29 H29        -1.2594   -0.2585   47.9653 H       1  ZINC000655235556    0.1400
     30 H30        -3.4995    0.5961   48.4976 H       1  ZINC000655235556    0.1400
     31 H31        -5.0308    0.7679   50.2069 H       1  ZINC000655235556    0.4000
     32 H32        -6.4079    3.1043   51.3084 H       1  ZINC000655235556    0.1000
     33 H33        -7.0100    2.5159   49.7401 H       1  ZINC000655235556    0.1100
     34 H34        -8.5207   -0.1641   55.0504 H       1  ZINC000655235556    0.0800
     35 H35        -9.8094    1.0456   55.3667 H       1  ZINC000655235556    0.0900
     36 H36        -9.9764   -1.4592   56.4653 H       1  ZINC000655235556    0.0900
     37 H37       -11.4520   -0.6568   55.8273 H       1  ZINC000655235556    0.0800
     38 H38        -9.6306   -2.6954   54.4347 H       1  ZINC000655235556    0.0600
     39 H39       -11.4179   -2.6862   54.5258 H       1  ZINC000655235556    0.0900
     40 H40        -6.3087   -0.5981   50.8780 H       1  ZINC000655235556    0.4400
@<TRIPOS>BOND
     1     1     2    1
     2     1    25    1
     3     1    26    1
     4     1    27    1
     5     2     3    1
     6     3     9   ar
     7     3     4   ar
     8     4     5   ar
     9     4    28    1
    10     5     6    1
    11     5     7   ar
    12     7     8   ar
    13     7    29    1
    14     8     9   ar
    15     8    30    1
    16     9    10    1
    17    10    11    2
    18    10    12   am
    19    12    13    1
    20    12    31    1
    21    13    14    1
    22    13    32    1
    23    13    33    1
    24    14    24    1
    25    14    15    2
    26    15    16    1
    27    16    17    1
    28    16    23    2
    29    17    18    1
    30    17    22    1
    31    17    19    1
    32    19    20    1
    33    19    34    1
    34    19    35    1
    35    20    21    1
    36    20    36    1
    37    20    37    1
    38    21    22    1
    39    21    38    1
    40    21    39    1
    41    23    24    1
    42    24    40    1
@<TRIPOS>SUBSTRUCTURE
     1 ZINC000655235556        1 TEMP              0 ****  ****    0 ROOT


##########                                Name:    ZINC000182378855
##########                DOCK_Rotatable_Bonds:                   8
##########                         Heavy_Atoms:                  27
##########                    Molecular_Weight:              394.83
##########                DOCK_Rotatable_Bonds:                   8
##########                       Formal_Charge:          -0.0200001
##########                     HBond_Acceptors:                   8
##########                        HBond_Donors:                   1
##########                         Heavy_Atoms:                  27
##########                          Grid_Score:          -31.874445
##########                     Grid_vdw_energy:          -30.072426
##########                      Grid_es_energy:           -1.802019
##########           Internal_energy_repulsive:           14.820308

@<TRIPOS>MOLECULE
ZINC000182378855
 47 49 1 0 0
SMALL
USER_CHARGES


@<TRIPOS>ATOM
      1 C1         -8.1776    0.8969   66.3633 C.3     1  ZINC000182378855    0.0300
      2 O2         -8.3765   -0.1672   65.4304 O.3     1  ZINC000182378855   -0.3900
      3 C3         -7.6351   -0.0229   64.2174 C.3     1  ZINC000182378855    0.0600
      4 C4         -8.1126    1.2258   63.4733 C.3     1  ZINC000182378855    0.0700
      5 O5         -9.5053    1.1013   63.1784 O.3     1  ZINC000182378855   -0.2900
      6 C6         -9.8405    0.3743   62.0830 C.ar    1  ZINC000182378855    0.3300
      7 C7        -11.1706    0.2950   61.6926 C.ar    1  ZINC000182378855   -0.1300
      8 C8        -11.4998   -0.4570   60.5633 C.ar    1  ZINC000182378855   -0.0600
      9 C9        -12.9052   -0.5705   60.1080 C.2     1  ZINC000182378855    0.5600
     10 O10       -13.7729    0.0889   60.6452 O.2     1  ZINC000182378855   -0.5200
     11 N11       -13.2211   -1.4051   59.0981 N.am    1  ZINC000182378855   -0.7100
     12 C12       -14.6110   -1.5187   58.6491 C.3     1  ZINC000182378855    0.1200
     13 H13       -15.1189   -0.5582   58.7357 H       1  ZINC000182378855    0.1100
     14 C14       -15.3561   -2.6005   59.4628 C.3     1  ZINC000182378855   -0.1700
     15 C15       -15.7766   -3.6435   58.4038 C.3     1  ZINC000182378855    0.0400
     16 O16       -14.8410   -3.4650   57.3181 O.3     1  ZINC000182378855   -0.3600
     17 C17       -14.6694   -2.0362   57.1948 C.3     1  ZINC000182378855    0.1100
     18 H18       -15.5170   -1.5962   56.6693 H       1  ZINC000182378855    0.1000
     19 C19       -13.3836   -1.7225   56.4743 C.ar    1  ZINC000182378855   -0.0500
     20 C20       -13.1669   -0.4545   55.9685 C.ar    1  ZINC000182378855   -0.1100
     21 C21       -11.9854   -0.1633   55.3121 C.ar    1  ZINC000182378855   -0.0800
     22 C22       -11.0238   -1.1438   55.1511 C.ar    1  ZINC000182378855   -0.0700
     23 Cl23       -9.5430   -0.7801   54.3212 Cl      1  ZINC000182378855   -0.0400
     24 C24       -11.2428   -2.4168   55.6530 C.ar    1  ZINC000182378855    0.1200
     25 F25       -10.3042   -3.3759   55.4970 F       1  ZINC000182378855   -0.1200
     26 C26       -12.4239   -2.7047   56.3147 C.ar    1  ZINC000182378855   -0.1300
     27 C27       -10.4667   -1.1004   59.8727 C.ar    1  ZINC000182378855   -0.1900
     28 C28        -9.1706   -0.9697   60.3285 C.ar    1  ZINC000182378855    0.1400
     29 N29        -8.8964   -0.2462   61.3965 N.ar    1  ZINC000182378855   -0.5200
     30 H30        -8.4834    1.8397   65.9096 H       1  ZINC000182378855    0.0400
     31 H31        -8.7744    0.7132   67.2567 H       1  ZINC000182378855    0.0900
     32 H32        -7.1233    0.9496   66.6350 H       1  ZINC000182378855    0.0400
     33 H33        -6.5746    0.0755   64.4492 H       1  ZINC000182378855    0.0600
     34 H34        -7.7900   -0.9009   63.5903 H       1  ZINC000182378855    0.0700
     35 H35        -7.9504    2.1048   64.0970 H       1  ZINC000182378855    0.0800
     36 H36        -7.5526    1.3314   62.5441 H       1  ZINC000182378855    0.0800
     37 H37       -11.9385    0.8067   62.2538 H       1  ZINC000182378855    0.1600
     38 H38       -12.5282   -1.9307   58.6685 H       1  ZINC000182378855    0.4000
     39 H39       -14.6903   -3.0507   60.1991 H       1  ZINC000182378855    0.0900
     40 H40       -16.2338   -2.1752   59.9496 H       1  ZINC000182378855    0.0900
     41 H41       -15.6970   -4.6513   58.8113 H       1  ZINC000182378855    0.1000
     42 H42       -16.7946   -3.4512   58.0651 H       1  ZINC000182378855    0.0700
     43 H43       -13.9196    0.3105   56.0897 H       1  ZINC000182378855    0.1500
     44 H44       -11.8155    0.8290   54.9212 H       1  ZINC000182378855    0.1500
     45 H45       -12.5956   -3.6963   56.7067 H       1  ZINC000182378855    0.1500
     46 H46       -10.6808   -1.6911   58.9943 H       1  ZINC000182378855    0.1400
     47 H47        -8.3685   -1.4635   59.8002 H       1  ZINC000182378855    0.1700
@<TRIPOS>BOND
     1     1     2    1
     2     1    30    1
     3     1    31    1
     4     1    32    1
     5     2     3    1
     6     3     4    1
     7     3    33    1
     8     3    34    1
     9     4     5    1
    10     4    35    1
    11     4    36    1
    12     5     6    1
    13     6    29   ar
    14     6     7   ar
    15     7     8   ar
    16     7    37    1
    17     8     9    1
    18     8    27   ar
    19     9    10    2
    20     9    11   am
    21    11    12    1
    22    11    38    1
    23    12    13    1
    24    12    17    1
    25    12    14    1
    26    14    15    1
    27    14    39    1
    28    14    40    1
    29    15    16    1
    30    15    41    1
    31    15    42    1
    32    16    17    1
    33    17    18    1
    34    17    19    1
    35    19    26   ar
    36    19    20   ar
    37    20    21   ar
    38    20    43    1
    39    21    22   ar
    40    21    44    1
    41    22    23    1
    42    22    24   ar
    43    24    25    1
    44    24    26   ar
    45    26    45    1
    46    27    28   ar
    47    27    46    1
    48    28    29   ar
    49    28    47    1
@<TRIPOS>SUBSTRUCTURE
     1 ZINC000182378855        1 TEMP              0 ****  ****    0 ROOT


##########                                Name:    ZINC001109404798
##########                DOCK_Rotatable_Bonds:                   7
##########                         Heavy_Atoms:                  25
##########                    Molecular_Weight:              360.48
##########                DOCK_Rotatable_Bonds:                   7
##########                       Formal_Charge:           0.0100002
##########                     HBond_Acceptors:                   7
##########                        HBond_Donors:                   1
##########                         Heavy_Atoms:                  25
##########                          Grid_Score:          -31.859230
##########                     Grid_vdw_energy:          -30.039249
##########                      Grid_es_energy:           -1.819981
##########           Internal_energy_repulsive:           24.715836

@<TRIPOS>MOLECULE
ZINC001109404798
 49 52 1 0 0
SMALL
USER_CHARGES


@<TRIPOS>ATOM
      1 C1        -10.7350   -1.2266   53.4295 C.3     1  ZINC001109404798   -0.0600
      2 C2        -10.6332   -1.7186   54.8503 C.2     1  ZINC001109404798    0.1700
      3 N3        -10.1569   -2.8649   55.2349 N.2     1  ZINC001109404798   -0.3900
      4 O4        -10.2130   -2.9589   56.4429 O.3     1  ZINC001109404798    0.1000
      5 C5        -10.7467   -1.8478   56.9593 C.2     1  ZINC001109404798    0.1900
      6 C6        -10.9907   -1.5639   58.4191 C.3     1  ZINC001109404798    0.1600
      7 H7        -10.5478   -2.3564   59.0224 H       1  ZINC001109404798    0.1000
      8 C8        -12.4968   -1.5039   58.6822 C.3     1  ZINC001109404798   -0.1500
      9 N9        -10.3796   -0.2767   58.7764 N.3     1  ZINC001109404798   -0.4800
     10 C10        -8.8806   -0.3337   58.6373 C.3     1  ZINC001109404798    0.0400
     11 H11        -8.5026   -0.5075   57.6298 H       1  ZINC001109404798    0.1100
     12 C12        -8.5251   -1.4286   59.6878 C.3     1  ZINC001109404798   -0.1600
     13 C13        -9.5909   -1.2293   60.7931 C.3     1  ZINC001109404798   -0.1600
     14 C14       -10.4480   -0.0406   60.2627 C.3     1  ZINC001109404798    0.0400
     15 H15       -11.4492    0.0432   60.6856 H       1  ZINC001109404798    0.1200
     16 C16        -9.5411    1.2162   60.4262 C.3     1  ZINC001109404798    0.1500
     17 H17       -10.1130    2.1274   60.2509 H       1  ZINC001109404798    0.1000
     18 N18        -8.9291    1.2411   61.7569 N.am    1  ZINC001109404798   -0.7200
     19 C19        -9.4449    2.0289   62.7211 C.2     1  ZINC001109404798    0.5100
     20 O20       -10.4166    2.7160   62.4876 O.2     1  ZINC001109404798   -0.5300
     21 C21        -8.8143    2.0559   64.0896 C.3     1  ZINC001109404798   -0.1300
     22 C22        -8.6195    0.6232   64.5899 C.3     1  ZINC001109404798   -0.0400
     23 C23        -7.8539    0.6439   65.8877 C.2     1  ZINC001109404798   -0.1000
     24 C24        -8.4420    0.8663   67.0642 C.2     1  ZINC001109404798   -0.2100
     25 S25        -7.2374    0.8154   68.3447 S.3     1  ZINC001109404798    0.1000
     26 C26        -5.9653    0.4852   67.1759 C.2     1  ZINC001109404798   -0.2100
     27 C27        -6.4881    0.4278   65.9501 C.2     1  ZINC001109404798   -0.1300
     28 C28        -8.4694    1.0227   59.2855 C.3     1  ZINC001109404798   -0.1100
     29 N29       -11.0130   -1.0497   55.9535 N.2     1  ZINC001109404798   -0.4800
     30 H30        -9.8203   -0.6978   53.1616 H       1  ZINC001109404798    0.0900
     31 H31       -10.8732   -2.0755   52.7600 H       1  ZINC001109404798    0.0900
     32 H32       -11.5852   -0.5505   53.3393 H       1  ZINC001109404798    0.0900
     33 H33       -12.9502   -2.4590   58.4170 H       1  ZINC001109404798    0.0700
     34 H34       -12.6732   -1.2986   59.7380 H       1  ZINC001109404798    0.0800
     35 H35       -12.9398   -0.7115   58.0789 H       1  ZINC001109404798    0.0800
     36 H36        -8.6085   -2.4229   59.2490 H       1  ZINC001109404798    0.0700
     37 H37        -7.5237   -1.2668   60.0867 H       1  ZINC001109404798    0.0800
     38 H38       -10.2026   -2.1248   60.9022 H       1  ZINC001109404798    0.0700
     39 H39        -9.1178   -0.9689   61.7399 H       1  ZINC001109404798    0.0800
     40 H40        -8.1526    0.6907   61.9441 H       1  ZINC001109404798    0.4000
     41 H41        -7.8475    2.5562   64.0344 H       1  ZINC001109404798    0.0900
     42 H42        -9.4639    2.5961   64.7785 H       1  ZINC001109404798    0.1000
     43 H43        -9.5925    0.1586   64.7493 H       1  ZINC001109404798    0.0800
     44 H44        -8.0614    0.0521   63.8479 H       1  ZINC001109404798    0.0800
     45 H45        -9.4964    1.0499   67.2083 H       1  ZINC001109404798    0.1600
     46 H46        -4.9213    0.3455   67.4147 H       1  ZINC001109404798    0.1600
     47 H47        -5.8897    0.2353   65.0717 H       1  ZINC001109404798    0.1400
     48 H48        -7.4686    0.9394   59.7094 H       1  ZINC001109404798    0.0800
     49 H49        -8.5173    1.8441   58.5705 H       1  ZINC001109404798    0.0900
@<TRIPOS>BOND
     1     1     2    1
     2     1    30    1
     3     1    31    1
     4     1    32    1
     5     2    29    1
     6     2     3    2
     7     3     4    1
     8     4     5    1
     9     5     6    1
    10     5    29    2
    11     6     7    1
    12     6     8    1
    13     6     9    1
    14     8    33    1
    15     8    34    1
    16     8    35    1
    17     9    14    1
    18     9    10    1
    19    10    11    1
    20    10    28    1
    21    10    12    1
    22    12    13    1
    23    12    36    1
    24    12    37    1
    25    13    14    1
    26    13    38    1
    27    13    39    1
    28    14    15    1
    29    14    16    1
    30    16    17    1
    31    16    18    1
    32    16    28    1
    33    18    19   am
    34    18    40    1
    35    19    20    2
    36    19    21    1
    37    21    22    1
    38    21    41    1
    39    21    42    1
    40    22    23    1
    41    22    43    1
    42    22    44    1
    43    23    27    1
    44    23    24    2
    45    24    25    1
    46    24    45    1
    47    25    26    1
    48    26    27    2
    49    26    46    1
    50    27    47    1
    51    28    48    1
    52    28    49    1
@<TRIPOS>SUBSTRUCTURE
     1 ZINC001109404798        1 TEMP              0 ****  ****    0 ROOT


##########                                Name:    ZINC001327099466
##########                DOCK_Rotatable_Bonds:                   7
##########                         Heavy_Atoms:                  27
##########                    Molecular_Weight:             374.483
##########                DOCK_Rotatable_Bonds:                   7
##########                       Formal_Charge:           0.0199998
##########                     HBond_Acceptors:                   7
##########                        HBond_Donors:                   1
##########                         Heavy_Atoms:                  27
##########                          Grid_Score:          -31.835852
##########                     Grid_vdw_energy:          -31.862627
##########                      Grid_es_energy:            0.026776
##########           Internal_energy_repulsive:           13.020691

@<TRIPOS>MOLECULE
ZINC001327099466
 57 60 1 0 0
SMALL
USER_CHARGES


@<TRIPOS>ATOM
      1 O1         -9.3340   -0.5394   57.3020 O.2     1  ZINC001327099466   -0.4800
      2 C2         -8.6105    0.0625   58.0685 C.2     1  ZINC001327099466    0.5300
      3 N3         -8.0206    1.2098   57.6781 N.am    1  ZINC001327099466   -0.6000
      4 C4         -8.2378    1.7039   56.3871 C.2     1  ZINC001327099466    0.2900
      5 N5         -7.9943    1.0659   55.2660 N.2     1  ZINC001327099466   -0.3100
      6 N6         -8.3486    1.9039   54.2009 N.pl3   1  ZINC001327099466   -0.3500
      7 C7         -8.2368    1.5793   52.7767 C.3     1  ZINC001327099466    0.1700
      8 C8         -7.7805    2.8194   52.0054 C.3     1  ZINC001327099466   -0.1300
      9 C9         -7.6636    2.4804   50.5179 C.3     1  ZINC001327099466   -0.1200
     10 C10        -6.6414    1.3577   50.3294 C.3     1  ZINC001327099466   -0.1300
     11 C11        -7.0977    0.1178   51.1008 C.3     1  ZINC001327099466   -0.1200
     12 C12        -7.2144    0.4567   52.5882 C.3     1  ZINC001327099466   -0.1300
     13 C13        -8.8115    3.0625   54.7162 C.2     1  ZINC001327099466    0.0700
     14 C14        -8.7602    2.9671   56.0640 C.2     1  ZINC001327099466   -0.2700
     15 C15        -8.3788   -0.4649   59.4464 C.2     1  ZINC001327099466    0.5100
     16 O16        -7.4993   -1.2772   59.6453 O.2     1  ZINC001327099466   -0.5100
     17 N17        -9.1464   -0.0389   60.4690 N.am    1  ZINC001327099466   -0.5700
     18 C18       -10.2151    0.9440   60.2438 C.3     1  ZINC001327099466    0.0400
     19 C19       -10.0187    2.1162   61.2104 C.3     1  ZINC001327099466   -0.1300
     20 C20        -9.9461    1.5837   62.6435 C.3     1  ZINC001327099466   -0.1200
     21 C21        -8.7488    0.6401   62.7788 C.3     1  ZINC001327099466    0.0800
     22 H22        -7.8340    1.1741   62.5217 H       1  ZINC001327099466    0.0700
     23 O23        -8.6633    0.1681   64.1249 O.3     1  ZINC001327099466   -0.3500
     24 C24        -8.2559    1.1640   65.0652 C.3     1  ZINC001327099466    0.0600
     25 C25        -9.3396    1.5157   66.0982 C.3     1  ZINC001327099466   -0.1600
     26 C26        -8.7667    0.3840   66.9678 C.3     1  ZINC001327099466   -0.1400
     27 C27        -7.4319    0.6045   66.2369 C.3     1  ZINC001327099466   -0.1400
     28 C28        -8.9344   -0.5529   61.8289 C.3     1  ZINC001327099466    0.0900
     29 H29        -7.4456    1.6929   58.2920 H       1  ZINC001327099466    0.4300
     30 H30        -9.2069    1.2542   52.4008 H       1  ZINC001327099466    0.1000
     31 H31        -8.5088    3.6191   52.1396 H       1  ZINC001327099466    0.0700
     32 H32        -6.8103    3.1444   52.3812 H       1  ZINC001327099466    0.0700
     33 H33        -8.6338    2.1553   50.1422 H       1  ZINC001327099466    0.0700
     34 H34        -7.3386    3.3639   49.9684 H       1  ZINC001327099466    0.0700
     35 H35        -6.5582    1.1162   49.2699 H       1  ZINC001327099466    0.0700
     36 H36        -5.6712    1.6829   50.7053 H       1  ZINC001327099466    0.0700
     37 H37        -8.0678   -0.2074   50.7250 H       1  ZINC001327099466    0.0700
     38 H38        -6.3693   -0.6821   50.9665 H       1  ZINC001327099466    0.0700
     39 H39        -6.2443    0.7818   52.9641 H       1  ZINC001327099466    0.0700
     40 H40        -7.5395   -0.4268   53.1378 H       1  ZINC001327099466    0.0700
     41 H41        -9.1641    3.9132   54.1520 H       1  ZINC001327099466    0.1800
     42 H42        -9.0618    3.7293   56.7673 H       1  ZINC001327099466    0.1700
     43 H43       -10.1685    1.3057   59.2167 H       1  ZINC001327099466    0.1600
     44 H44       -11.1838    0.4786   60.4259 H       1  ZINC001327099466    0.0700
     45 H45        -9.0919    2.6361   60.9682 H       1  ZINC001327099466    0.0700
     46 H46       -10.8577    2.8061   61.1208 H       1  ZINC001327099466    0.0900
     47 H47        -9.8310    2.4180   63.3354 H       1  ZINC001327099466    0.0800
     48 H48       -10.8631    1.0426   62.8767 H       1  ZINC001327099466    0.0800
     49 H49        -7.8043    2.0350   64.5904 H       1  ZINC001327099466    0.0700
     50 H50        -9.2198    2.5064   66.5365 H       1  ZINC001327099466    0.0900
     51 H51       -10.3543    1.3264   65.7482 H       1  ZINC001327099466    0.0700
     52 H52        -8.7282    0.6263   68.0298 H       1  ZINC001327099466    0.0700
     53 H53        -9.2171   -0.5888   66.7706 H       1  ZINC001327099466    0.0800
     54 H54        -6.9065   -0.3205   65.9987 H       1  ZINC001327099466    0.0800
     55 H55        -6.7905    1.3461   66.7130 H       1  ZINC001327099466    0.0900
     56 H56        -9.7984   -1.1387   62.1427 H       1  ZINC001327099466    0.0900
     57 H57        -8.0410   -1.1771   61.8472 H       1  ZINC001327099466    0.1000
@<TRIPOS>BOND
     1     1     2    2
     2     2     3   am
     3     2    15    1
     4     3     4    1
     5     3    29    1
     6     4    14    1
     7     4     5    2
     8     5     6    1
     9     6     7    1
    10     6    13    1
    11     7    12    1
    12     7     8    1
    13     7    30    1
    14     8     9    1
    15     8    31    1
    16     8    32    1
    17     9    10    1
    18     9    33    1
    19     9    34    1
    20    10    11    1
    21    10    35    1
    22    10    36    1
    23    11    12    1
    24    11    37    1
    25    11    38    1
    26    12    39    1
    27    12    40    1
    28    13    14    2
    29    13    41    1
    30    14    42    1
    31    15    16    2
    32    15    17   am
    33    17    28    1
    34    17    18    1
    35    18    19    1
    36    18    43    1
    37    18    44    1
    38    19    20    1
    39    19    45    1
    40    19    46    1
    41    20    21    1
    42    20    47    1
    43    20    48    1
    44    21    22    1
    45    21    23    1
    46    21    28    1
    47    23    24    1
    48    24    27    1
    49    24    25    1
    50    24    49    1
    51    25    26    1
    52    25    50    1
    53    25    51    1
    54    26    27    1
    55    26    52    1
    56    26    53    1
    57    27    54    1
    58    27    55    1
    59    28    56    1
    60    28    57    1
@<TRIPOS>SUBSTRUCTURE
     1 ZINC001327099466        1 TEMP              0 ****  ****    0 ROOT


##########                                Name:    ZINC001492779707
##########                DOCK_Rotatable_Bonds:                   8
##########                         Heavy_Atoms:                  27
##########                    Molecular_Weight:             374.483
##########                DOCK_Rotatable_Bonds:                   8
##########                       Formal_Charge:           0.0199998
##########                     HBond_Acceptors:                   7
##########                        HBond_Donors:                   0
##########                         Heavy_Atoms:                  27
##########                          Grid_Score:          -31.829798
##########                     Grid_vdw_energy:          -31.232103
##########                      Grid_es_energy:           -0.597694
##########           Internal_energy_repulsive:            9.758936

@<TRIPOS>MOLECULE
ZINC001492779707
 57 59 1 0 0
SMALL
USER_CHARGES


@<TRIPOS>ATOM
      1 C1         -9.3935    3.9163   54.9272 C.3     1  ZINC001492779707   -0.0700
      2 C2         -9.5026    3.1076   56.1941 C.2     1  ZINC001492779707    0.1800
      3 N3        -10.2853    3.3584   57.2053 N.2     1  ZINC001492779707   -0.2900
      4 N4        -10.1249    2.4679   58.1182 N.2     1  ZINC001492779707   -0.3100
      5 C5         -9.2240    1.5941   57.7351 C.2     1  ZINC001492779707    0.3400
      6 N6         -8.7869    0.4926   58.4537 N.3     1  ZINC001492779707   -0.4600
      7 C7         -7.6415    0.8402   59.3052 C.3     1  ZINC001492779707    0.0300
      8 C8         -9.8788   -0.0837   59.2496 C.3     1  ZINC001492779707    0.1100
      9 C9        -10.2006   -1.4636   58.7361 C.ar    1  ZINC001492779707   -0.0400
     10 C10        -9.3788   -2.5284   59.0556 C.ar    1  ZINC001492779707   -0.1300
     11 C11        -9.6714   -3.7958   58.5860 C.ar    1  ZINC001492779707   -0.0800
     12 C12       -10.7857   -4.0007   57.7962 C.ar    1  ZINC001492779707   -0.2100
     13 C13       -11.6120   -2.9336   57.4741 C.ar    1  ZINC001492779707    0.1300
     14 O14       -12.7094   -3.1328   56.6974 O.3     1  ZINC001492779707   -0.3100
     15 C15       -13.9075   -3.5422   57.3601 C.3     1  ZINC001492779707    0.0800
     16 C16       -14.9893   -2.4786   57.1609 C.3     1  ZINC001492779707   -0.1500
     17 C17       -14.3856   -4.8720   56.7739 C.3     1  ZINC001492779707   -0.1800
     18 C18       -11.3196   -1.6644   57.9510 C.ar    1  ZINC001492779707   -0.1400
     19 N19        -8.8030    1.9715   56.4933 N.pl3   1  ZINC001492779707   -0.4600
     20 C20        -7.8020    1.3035   55.6577 C.3     1  ZINC001492779707    0.1200
     21 C21        -8.5002    0.5854   54.5010 C.3     1  ZINC001492779707   -0.1200
     22 C22        -7.5494    0.5005   53.3054 C.3     1  ZINC001492779707    0.0600
     23 H23        -6.6307   -0.0034   53.6055 H       1  ZINC001492779707    0.0800
     24 C24        -8.2185   -0.2859   52.1743 C.3     1  ZINC001492779707    0.0300
     25 O25        -7.3700   -0.2652   51.0225 O.3     1  ZINC001492779707   -0.3800
     26 C26        -7.0643    1.0538   50.5601 C.3     1  ZINC001492779707    0.0200
     27 C27        -6.3952    1.8401   51.6910 C.3     1  ZINC001492779707    0.0300
     28 O28        -7.2425    1.8196   52.8439 O.3     1  ZINC001492779707   -0.3800
     29 H29       -10.1088    3.5421   54.1946 H       1  ZINC001492779707    0.0900
     30 H30        -9.6092    4.9625   55.1441 H       1  ZINC001492779707    0.1000
     31 H31        -8.3837    3.8290   54.5263 H       1  ZINC001492779707    0.0800
     32 H32        -7.9617    1.5402   60.0770 H       1  ZINC001492779707    0.0500
     33 H33        -7.2496   -0.0626   59.7736 H       1  ZINC001492779707    0.0900
     34 H34        -6.8632    1.3012   58.6969 H       1  ZINC001492779707    0.0700
     35 H35        -9.5731   -0.1468   60.2939 H       1  ZINC001492779707    0.0700
     36 H36       -10.7620    0.5497   59.1672 H       1  ZINC001492779707    0.0900
     37 H37        -8.5068   -2.3701   59.6728 H       1  ZINC001492779707    0.1200
     38 H38        -9.0276   -4.6260   58.8368 H       1  ZINC001492779707    0.1300
     39 H39       -11.0136   -4.9906   57.4293 H       1  ZINC001492779707    0.1300
     40 H40       -13.7100   -3.6644   58.4250 H       1  ZINC001492779707    0.0700
     41 H41       -15.1868   -2.3563   56.0959 H       1  ZINC001492779707    0.0700
     42 H42       -15.9032   -2.7909   57.6663 H       1  ZINC001492779707    0.0800
     43 H43       -14.6486   -1.5312   57.5784 H       1  ZINC001492779707    0.0700
     44 H44       -13.6149   -5.6297   56.9159 H       1  ZINC001492779707    0.0600
     45 H45       -15.2995   -5.1843   57.2796 H       1  ZINC001492779707    0.0700
     46 H46       -14.5831   -4.7498   55.7091 H       1  ZINC001492779707    0.0700
     47 H47       -11.9612   -0.8322   57.7016 H       1  ZINC001492779707    0.1300
     48 H48        -7.1082    2.0441   55.2599 H       1  ZINC001492779707    0.1000
     49 H49        -7.2537    0.5775   56.2580 H       1  ZINC001492779707    0.1000
     50 H50        -8.7810   -0.4202   54.8142 H       1  ZINC001492779707    0.0900
     51 H51        -9.3941    1.1400   54.2158 H       1  ZINC001492779707    0.0800
     52 H52        -8.3771   -1.3166   52.4916 H       1  ZINC001492779707    0.1100
     53 H53        -9.1767    0.1724   51.9292 H       1  ZINC001492779707    0.0600
     54 H54        -6.3869    0.9931   49.7082 H       1  ZINC001492779707    0.1100
     55 H55        -7.9835    1.5570   50.2607 H       1  ZINC001492779707    0.0600
     56 H56        -5.4371    1.3818   51.9362 H       1  ZINC001492779707    0.0600
     57 H57        -6.2366    2.8708   51.3738 H       1  ZINC001492779707    0.1100
@<TRIPOS>BOND
     1     1     2    1
     2     1    29    1
     3     1    30    1
     4     1    31    1
     5     2    19    1
     6     2     3    2
     7     3     4    1
     8     4     5    2
     9     5     6    1
    10     5    19    1
    11     6     7    1
    12     6     8    1
    13     7    32    1
    14     7    33    1
    15     7    34    1
    16     8     9    1
    17     8    35    1
    18     8    36    1
    19     9    18   ar
    20     9    10   ar
    21    10    11   ar
    22    10    37    1
    23    11    12   ar
    24    11    38    1
    25    12    13   ar
    26    12    39    1
    27    13    14    1
    28    13    18   ar
    29    14    15    1
    30    15    16    1
    31    15    17    1
    32    15    40    1
    33    16    41    1
    34    16    42    1
    35    16    43    1
    36    17    44    1
    37    17    45    1
    38    17    46    1
    39    18    47    1
    40    19    20    1
    41    20    21    1
    42    20    48    1
    43    20    49    1
    44    21    22    1
    45    21    50    1
    46    21    51    1
    47    22    23    1
    48    22    28    1
    49    22    24    1
    50    24    25    1
    51    24    52    1
    52    24    53    1
    53    25    26    1
    54    26    27    1
    55    26    54    1
    56    26    55    1
    57    27    28    1
    58    27    56    1
    59    27    57    1
@<TRIPOS>SUBSTRUCTURE
     1 ZINC001492779707        1 TEMP              0 ****  ****    0 ROOT


##########                                Name:    ZINC000898967786
##########                DOCK_Rotatable_Bonds:                   5
##########                         Heavy_Atoms:                  25
##########                    Molecular_Weight:             356.448
##########                DOCK_Rotatable_Bonds:                   5
##########                       Formal_Charge:        -2.38419e-07
##########                     HBond_Acceptors:                   7
##########                        HBond_Donors:                   1
##########                         Heavy_Atoms:                  25
##########                          Grid_Score:          -31.753971
##########                     Grid_vdw_energy:          -31.519287
##########                      Grid_es_energy:           -0.234683
##########           Internal_energy_repulsive:           11.675297

@<TRIPOS>MOLECULE
ZINC000898967786
 45 48 1 0 0
SMALL
USER_CHARGES


@<TRIPOS>ATOM
      1 C1         -4.0161    4.9359   52.1953 C.3     1  ZINC000898967786   -0.0800
      2 C2         -3.2341    3.9339   51.3857 C.2     1  ZINC000898967786    0.0900
      3 C3         -3.7593    3.0320   50.5277 C.2     1  ZINC000898967786   -0.1000
      4 C4         -5.2204    2.8461   50.2090 C.3     1  ZINC000898967786    0.2200
      5 N5         -5.8940    2.2234   51.3513 N.am    1  ZINC000898967786   -0.7400
      6 C6         -6.7221    1.1778   51.1573 C.2     1  ZINC000898967786    0.7100
      7 O7         -6.9100    0.7514   50.0343 O.2     1  ZINC000898967786   -0.5800
      8 N8         -7.3418    0.6050   52.2082 N.am    1  ZINC000898967786   -0.6300
      9 C9         -8.2501   -0.5374   52.0212 C.3     1  ZINC000898967786    0.0900
     10 C10        -9.5653   -0.2335   52.7477 C.3     1  ZINC000898967786    0.0500
     11 O11        -9.2818    0.1377   54.0989 O.3     1  ZINC000898967786   -0.3700
     12 C12        -8.4995    1.3274   54.2271 C.3     1  ZINC000898967786    0.1400
     13 H13        -9.0082    2.1530   53.7295 H       1  ZINC000898967786    0.0700
     14 C14        -8.3169    1.6549   55.6867 C.2     1  ZINC000898967786   -0.1100
     15 C15        -7.2466    2.3039   56.1479 C.2     1  ZINC000898967786   -0.1800
     16 S16        -7.3834    2.5036   57.8900 S.3     1  ZINC000898967786    0.1100
     17 C17        -8.9321    1.6699   57.8942 C.2     1  ZINC000898967786   -0.2100
     18 C18        -9.2498    1.3102   56.6495 C.2     1  ZINC000898967786   -0.1300
     19 C19        -7.1253    1.0997   53.5770 C.3     1  ZINC000898967786    0.0900
     20 N20        -2.7163    2.3193   50.0019 N.pl3   1  ZINC000898967786   -0.3500
     21 C21        -2.6583    1.2976   49.0988 C.2     1  ZINC000898967786    0.0600
     22 C22        -1.4723    0.7601   48.7445 C.2     1  ZINC000898967786   -0.1400
     23 C23        -0.2786    1.2465   49.3029 C.2     1  ZINC000898967786   -0.1000
     24 C24        -0.3221    2.2643   50.2042 C.2     1  ZINC000898967786   -0.0800
     25 C25        -1.5685    2.8154   50.5636 C.2     1  ZINC000898967786    0.2400
     26 N26        -1.9065    3.7932   51.3923 N.2     1  ZINC000898967786   -0.4900
     27 H27        -4.1284    5.8569   51.6232 H       1  ZINC000898967786    0.0800
     28 H28        -5.0006    4.5285   52.4250 H       1  ZINC000898967786    0.0700
     29 H29        -3.4847    5.1472   53.1232 H       1  ZINC000898967786    0.0800
     30 H30        -5.6740    3.8159   50.0042 H       1  ZINC000898967786    0.1000
     31 H31        -5.3226    2.2051   49.3333 H       1  ZINC000898967786    0.0700
     32 H32        -5.7441    2.5637   52.2472 H       1  ZINC000898967786    0.4000
     33 H33        -8.4430   -0.6830   50.9584 H       1  ZINC000898967786    0.1100
     34 H34        -7.7991   -1.4373   52.4396 H       1  ZINC000898967786    0.0800
     35 H35       -10.0779    0.5865   52.2448 H       1  ZINC000898967786    0.0600
     36 H36       -10.1994   -1.1200   52.7391 H       1  ZINC000898967786    0.1100
     37 H37        -6.4221    2.6529   55.5441 H       1  ZINC000898967786    0.1700
     38 H38        -9.5358    1.4821   58.7697 H       1  ZINC000898967786    0.1700
     39 H39       -10.1618    0.7829   56.4121 H       1  ZINC000898967786    0.1400
     40 H40        -6.5634    0.3653   54.1540 H       1  ZINC000898967786    0.0800
     41 H41        -6.5748    2.0399   53.5432 H       1  ZINC000898967786    0.0900
     42 H42        -3.5702    0.9158   48.6639 H       1  ZINC000898967786    0.1600
     43 H43        -1.4407   -0.0479   48.0286 H       1  ZINC000898967786    0.1500
     44 H44         0.6692    0.8140   49.0182 H       1  ZINC000898967786    0.1500
     45 H45         0.5893    2.6460   50.6403 H       1  ZINC000898967786    0.1500
@<TRIPOS>BOND
     1     1     2    1
     2     1    27    1
     3     1    28    1
     4     1    29    1
     5     2    26    1
     6     2     3    2
     7     3     4    1
     8     3    20    1
     9     4     5    1
    10     4    30    1
    11     4    31    1
    12     5     6   am
    13     5    32    1
    14     6     7    2
    15     6     8   am
    16     8    19    1
    17     8     9    1
    18     9    10    1
    19     9    33    1
    20     9    34    1
    21    10    11    1
    22    10    35    1
    23    10    36    1
    24    11    12    1
    25    12    13    1
    26    12    14    1
    27    12    19    1
    28    14    18    1
    29    14    15    2
    30    15    16    1
    31    15    37    1
    32    16    17    1
    33    17    18    2
    34    17    38    1
    35    18    39    1
    36    19    40    1
    37    19    41    1
    38    20    25    1
    39    20    21    1
    40    21    22    2
    41    21    42    1
    42    22    23    1
    43    22    43    1
    44    23    24    2
    45    23    44    1
    46    24    25    1
    47    24    45    1
    48    25    26    2
@<TRIPOS>SUBSTRUCTURE
     1 ZINC000898967786        1 TEMP              0 ****  ****    0 ROOT


##########                                Name:    ZINC000432058199
##########                DOCK_Rotatable_Bonds:                   5
##########                         Heavy_Atoms:                  30
##########                    Molecular_Weight:             406.441
##########                DOCK_Rotatable_Bonds:                   5
##########                       Formal_Charge:        -4.02331e-07
##########                     HBond_Acceptors:                   8
##########                        HBond_Donors:                   1
##########                         Heavy_Atoms:                  30
##########                          Grid_Score:          -31.748009
##########                     Grid_vdw_energy:          -28.596989
##########                      Grid_es_energy:           -3.151020
##########           Internal_energy_repulsive:           15.555578

@<TRIPOS>MOLECULE
ZINC000432058199
 52 55 1 0 0
SMALL
USER_CHARGES


@<TRIPOS>ATOM
      1 C1         -6.6422    0.9858   51.5653 C.3     1  ZINC000432058199    0.0300
      2 O2         -7.0828    0.5128   52.8397 O.3     1  ZINC000432058199   -0.3100
      3 C3         -8.4149    0.2868   52.9871 C.ar    1  ZINC000432058199    0.1300
      4 C4         -9.2710    0.4565   51.9080 C.ar    1  ZINC000432058199   -0.1900
      5 C5        -10.6266    0.2276   52.0535 C.ar    1  ZINC000432058199   -0.0800
      6 C6        -11.1361   -0.1709   53.2729 C.ar    1  ZINC000432058199   -0.1100
      7 C7        -10.2831   -0.3441   54.3613 C.ar    1  ZINC000432058199    0.0100
      8 C8        -10.8284   -0.7730   55.6735 C.2     1  ZINC000432058199    0.2100
      9 N9        -12.0319   -0.5392   56.1277 N.2     1  ZINC000432058199   -0.3700
     10 O10       -12.1622   -1.0238   57.2320 O.3     1  ZINC000432058199    0.1200
     11 C11       -11.0297   -1.6295   57.6024 C.2     1  ZINC000432058199    0.1600
     12 C12       -10.7845   -2.3512   58.9024 C.3     1  ZINC000432058199    0.2500
     13 H13       -10.4070   -3.3528   58.6964 H       1  ZINC000432058199    0.1500
     14 C14       -12.0952   -2.4513   59.6853 C.3     1  ZINC000432058199   -0.1700
     15 N15        -9.7985   -1.6109   59.6936 N.am    1  ZINC000432058199   -0.5800
     16 C16        -8.5816   -2.0736   60.0019 C.2     1  ZINC000432058199    0.7000
     17 O17        -8.1653   -3.1620   59.6566 O.2     1  ZINC000432058199   -0.5100
     18 N18        -7.8704   -1.1997   60.7367 N.am    1  ZINC000432058199   -0.7200
     19 C19        -8.7283   -0.0185   60.9336 C.3     1  ZINC000432058199    0.1400
     20 H20        -8.9266    0.1391   61.9938 H       1  ZINC000432058199    0.1400
     21 C21        -8.0925    1.2059   60.3271 C.ar    1  ZINC000432058199   -0.1000
     22 C22        -7.7792    1.2269   58.9809 C.ar    1  ZINC000432058199   -0.1000
     23 C23        -7.1958    2.3499   58.4245 C.ar    1  ZINC000432058199   -0.0800
     24 C24        -6.8539    2.3729   56.9571 C.3     1  ZINC000432058199   -0.1200
     25 C25        -6.9267    3.4521   59.2142 C.ar    1  ZINC000432058199   -0.1100
     26 C26        -7.2404    3.4311   60.5604 C.ar    1  ZINC000432058199   -0.0800
     27 C27        -6.9465    4.6326   61.4214 C.3     1  ZINC000432058199   -0.1200
     28 C28        -7.8275    2.3098   61.1158 C.ar    1  ZINC000432058199   -0.1000
     29 C29       -10.0031   -0.3771   60.1960 C.2     1  ZINC000432058199    0.5300
     30 O30       -11.0012    0.3021   60.0857 O.2     1  ZINC000432058199   -0.4500
     31 N31       -10.1753   -1.4837   56.6204 N.2     1  ZINC000432058199   -0.4500
     32 C32        -8.9172   -0.1185   54.2130 C.ar    1  ZINC000432058199   -0.1200
     33 H33        -5.5612    1.1246   51.5831 H       1  ZINC000432058199    0.1000
     34 H34        -6.9023    0.2571   50.7975 H       1  ZINC000432058199    0.0600
     35 H35        -7.1270    1.9365   51.3431 H       1  ZINC000432058199    0.0600
     36 H36        -8.8771    0.7685   50.9520 H       1  ZINC000432058199    0.1400
     37 H37       -11.2889    0.3614   51.2109 H       1  ZINC000432058199    0.1400
     38 H38       -12.1957   -0.3483   53.3836 H       1  ZINC000432058199    0.1400
     39 H39       -12.4727   -1.4497   59.8913 H       1  ZINC000432058199    0.0900
     40 H40       -12.8289   -3.0021   59.0967 H       1  ZINC000432058199    0.0900
     41 H41       -11.9178   -2.9733   60.6256 H       1  ZINC000432058199    0.0900
     42 H42        -6.9686   -1.3233   61.0720 H       1  ZINC000432058199    0.4500
     43 H43        -7.9899    0.3660   58.3639 H       1  ZINC000432058199    0.1200
     44 H44        -7.7030    2.7576   56.3921 H       1  ZINC000432058199    0.0700
     45 H45        -5.9887    3.0158   56.7956 H       1  ZINC000432058199    0.0700
     46 H46        -6.6228    1.3617   56.6220 H       1  ZINC000432058199    0.0700
     47 H47        -6.4709    4.3295   58.7796 H       1  ZINC000432058199    0.1300
     48 H48        -7.8071    5.3014   61.4178 H       1  ZINC000432058199    0.0700
     49 H49        -6.7432    4.3073   62.4417 H       1  ZINC000432058199    0.0700
     50 H50        -6.0764    5.1579   61.0274 H       1  ZINC000432058199    0.0700
     51 H51        -8.0726    2.2933   62.1675 H       1  ZINC000432058199    0.1300
     52 H52        -8.2521   -0.2514   55.0535 H       1  ZINC000432058199    0.1400
@<TRIPOS>BOND
     1     1     2    1
     2     1    33    1
     3     1    34    1
     4     1    35    1
     5     2     3    1
     6     3    32   ar
     7     3     4   ar
     8     4     5   ar
     9     4    36    1
    10     5     6   ar
    11     5    37    1
    12     6     7   ar
    13     6    38    1
    14     7     8    1
    15     7    32   ar
    16     8    31    1
    17     8     9    2
    18     9    10    1
    19    10    11    1
    20    11    12    1
    21    11    31    2
    22    12    13    1
    23    12    14    1
    24    12    15    1
    25    14    39    1
    26    14    40    1
    27    14    41    1
    28    15    29   am
    29    15    16   am
    30    16    17    2
    31    16    18   am
    32    18    19    1
    33    18    42    1
    34    19    20    1
    35    19    21    1
    36    19    29    1
    37    21    28   ar
    38    21    22   ar
    39    22    23   ar
    40    22    43    1
    41    23    24    1
    42    23    25   ar
    43    24    44    1
    44    24    45    1
    45    24    46    1
    46    25    26   ar
    47    25    47    1
    48    26    27    1
    49    26    28   ar
    50    27    48    1
    51    27    49    1
    52    27    50    1
    53    28    51    1
    54    29    30    2
    55    32    52    1
@<TRIPOS>SUBSTRUCTURE
     1 ZINC000432058199        1 TEMP              0 ****  ****    0 ROOT


##########                                Name:    ZINC000929592477
##########                DOCK_Rotatable_Bonds:                   7
##########                         Heavy_Atoms:                  28
##########                    Molecular_Weight:             399.517
##########                DOCK_Rotatable_Bonds:                   7
##########                       Formal_Charge:         -8.9407e-08
##########                     HBond_Acceptors:                   8
##########                        HBond_Donors:                   3
##########                         Heavy_Atoms:                  28
##########                          Grid_Score:          -31.728184
##########                     Grid_vdw_energy:          -32.485607
##########                      Grid_es_energy:            0.757423
##########           Internal_energy_repulsive:           14.097660

@<TRIPOS>MOLECULE
ZINC000929592477
 53 56 1 0 0
SMALL
USER_CHARGES


@<TRIPOS>ATOM
      1 O1         -8.4421    2.1025   54.0449 O.2     1  ZINC000929592477   -0.5700
      2 C2         -8.3895    1.1782   53.2564 C.2     1  ZINC000929592477    0.7100
      3 N3         -8.9488   -0.0073   53.5699 N.am    1  ZINC000929592477   -0.6800
      4 C4         -9.5860   -0.1767   54.8070 C.ar    1  ZINC000929592477    0.1600
      5 C5        -10.9478   -0.4434   54.8556 C.ar    1  ZINC000929592477   -0.1300
      6 C6        -11.5759   -0.6098   56.0737 C.ar    1  ZINC000929592477   -0.0800
      7 C7        -10.8449   -0.5108   57.2511 C.ar    1  ZINC000929592477   -0.1000
      8 S8        -11.6458   -0.7237   58.8061 S.3     1  ZINC000929592477   -0.1100
      9 C9        -13.3258   -1.2202   58.3353 C.3     1  ZINC000929592477   -0.0800
     10 C10       -13.3457   -2.6997   57.8774 C.3     1  ZINC000929592477   -0.1200
     11 C11       -14.8212   -3.1095   58.1092 C.3     1  ZINC000929592477   -0.1200
     12 C12       -15.2119   -2.3925   59.4180 C.3     1  ZINC000929592477   -0.1200
     13 C13       -14.2611   -1.1911   59.5618 C.3     1  ZINC000929592477   -0.1000
     14 C14        -9.4822   -0.2444   57.2021 C.ar    1  ZINC000929592477   -0.1200
     15 C15        -8.8541   -0.0833   55.9833 C.ar    1  ZINC000929592477   -0.1000
     16 N16        -7.7769    1.3410   52.0671 N.am    1  ZINC000929592477   -0.7300
     17 C17        -7.1691    2.6297   51.7265 C.3     1  ZINC000929592477    0.1500
     18 H18        -7.5932    3.4277   52.3359 H       1  ZINC000929592477    0.1200
     19 C19        -7.3471    2.9386   50.2165 C.3     1  ZINC000929592477   -0.1400
     20 C20        -6.1708    2.1443   49.5958 C.3     1  ZINC000929592477    0.1100
     21 N21        -5.0671    2.2873   50.5625 N.pl3   1  ZINC000929592477   -0.6000
     22 C22        -3.7230    2.1754   50.2709 C.2     1  ZINC000929592477    0.4600
     23 C23        -2.8091    3.0381   50.8528 C.2     1  ZINC000929592477   -0.4000
     24 C24        -1.4531    2.8907   50.5300 C.2     1  ZINC000929592477    0.5300
     25 O25        -0.6132    3.6290   51.0198 O.2     1  ZINC000929592477   -0.5500
     26 N26        -1.0936    1.9170   49.6676 N.am    1  ZINC000929592477   -0.6400
     27 C27        -2.0265    1.1054   49.1309 C.2     1  ZINC000929592477    0.4100
     28 N28        -3.2916    1.2261   49.4255 N.2     1  ZINC000929592477   -0.5700
     29 C29        -5.6359    2.5714   51.8933 C.3     1  ZINC000929592477    0.1100
     30 H30        -8.9104   -0.7434   52.9393 H       1  ZINC000929592477    0.4100
     31 H31       -11.5159   -0.5203   53.9404 H       1  ZINC000929592477    0.1300
     32 H32       -12.6351   -0.8166   56.1114 H       1  ZINC000929592477    0.1300
     33 H33       -13.7083   -0.5701   57.5485 H       1  ZINC000929592477    0.1000
     34 H34       -13.0832   -2.7811   56.8226 H       1  ZINC000929592477    0.0700
     35 H35       -12.6763   -3.3029   58.4908 H       1  ZINC000929592477    0.0800
     36 H36       -15.4465   -2.7663   57.2849 H       1  ZINC000929592477    0.0700
     37 H37       -14.9030   -4.1900   58.2271 H       1  ZINC000929592477    0.0700
     38 H38       -16.2440   -2.0468   59.3607 H       1  ZINC000929592477    0.0700
     39 H39       -15.0903   -3.0681   60.2646 H       1  ZINC000929592477    0.0700
     40 H40       -13.6781   -1.2839   60.4781 H       1  ZINC000929592477    0.0700
     41 H41       -14.8318   -0.2626   59.5742 H       1  ZINC000929592477    0.0800
     42 H42        -8.9137   -0.1674   58.1171 H       1  ZINC000929592477    0.1300
     43 H43        -7.7947    0.1235   55.9450 H       1  ZINC000929592477    0.1400
     44 H44        -7.7384    0.6049   51.4366 H       1  ZINC000929592477    0.4000
     45 H45        -8.3048    2.5671   49.8519 H       1  ZINC000929592477    0.0900
     46 H46        -7.2439    4.0059   50.0212 H       1  ZINC000929592477    0.0900
     47 H47        -6.4408    1.0946   49.4808 H       1  ZINC000929592477    0.0700
     48 H48        -5.8900    2.5722   48.6334 H       1  ZINC000929592477    0.0800
     49 H49        -3.1336    3.8065   51.5388 H       1  ZINC000929592477    0.1500
     50 H50        -0.1596    1.8008   49.4326 H       1  ZINC000929592477    0.4200
     51 H51        -1.7181    0.3324   48.4425 H       1  ZINC000929592477    0.2100
     52 H52        -5.2637    3.5283   52.2591 H       1  ZINC000929592477    0.0900
     53 H53        -5.3672    1.7763   52.5888 H       1  ZINC000929592477    0.0800
@<TRIPOS>BOND
     1     1     2    2
     2     2     3   am
     3     2    16   am
     4     3     4    1
     5     3    30    1
     6     4    15   ar
     7     4     5   ar
     8     5     6   ar
     9     5    31    1
    10     6     7   ar
    11     6    32    1
    12     7     8    1
    13     7    14   ar
    14     8     9    1
    15     9    13    1
    16     9    10    1
    17     9    33    1
    18    10    11    1
    19    10    34    1
    20    10    35    1
    21    11    12    1
    22    11    36    1
    23    11    37    1
    24    12    13    1
    25    12    38    1
    26    12    39    1
    27    13    40    1
    28    13    41    1
    29    14    15   ar
    30    14    42    1
    31    15    43    1
    32    16    17    1
    33    16    44    1
    34    17    18    1
    35    17    29    1
    36    17    19    1
    37    19    20    1
    38    19    45    1
    39    19    46    1
    40    20    21    1
    41    20    47    1
    42    20    48    1
    43    21    22    1
    44    21    29    1
    45    22    28    1
    46    22    23    2
    47    23    24    1
    48    23    49    1
    49    24    25    2
    50    24    26   am
    51    26    27    1
    52    26    50    1
    53    27    28    2
    54    27    51    1
    55    29    52    1
    56    29    53    1
@<TRIPOS>SUBSTRUCTURE
     1 ZINC000929592477        1 TEMP              0 ****  ****    0 ROOT


##########                                Name:    ZINC000543625960
##########                DOCK_Rotatable_Bonds:                   8
##########                         Heavy_Atoms:                  29
##########                    Molecular_Weight:             416.544
##########                DOCK_Rotatable_Bonds:                   8
##########                       Formal_Charge:           -0.010001
##########                     HBond_Acceptors:                   8
##########                        HBond_Donors:                   2
##########                         Heavy_Atoms:                  29
##########                          Grid_Score:          -31.654015
##########                     Grid_vdw_energy:          -30.890551
##########                      Grid_es_energy:           -0.763464
##########           Internal_energy_repulsive:           19.301327

@<TRIPOS>MOLECULE
ZINC000543625960
 57 59 1 0 0
SMALL
USER_CHARGES


@<TRIPOS>ATOM
      1 C1         -3.9859    2.1361   50.1984 C.3     1  ZINC000543625960   -0.1500
      2 C2         -5.2114    3.0174   50.4478 C.3     1  ZINC000543625960   -0.1300
      3 C3         -5.8161    2.6763   51.8113 C.3     1  ZINC000543625960    0.1500
      4 H4         -6.8336    3.0635   51.8646 H       1  ZINC000543625960    0.0800
      5 C5         -4.9704    3.3105   52.9174 C.3     1  ZINC000543625960   -0.1700
      6 N6         -5.8373    1.2219   51.9860 N.am    1  ZINC000543625960   -1.1100
      7 S7         -7.1940    0.3598   51.5881 S.o2    1  ZINC000543625960    2.7000
      8 O8         -7.5118    0.7079   50.2476 O.2     1  ZINC000543625960   -0.9600
      9 O9         -6.9578   -0.9768   52.0088 O.2     1  ZINC000543625960   -0.9500
     10 C10        -8.5113    0.9703   52.5864 C.ar    1  ZINC000543625960   -0.6600
     11 C11        -9.0786    2.1994   52.3050 C.ar    1  ZINC000543625960   -0.0400
     12 C12       -10.1126    2.6822   53.0862 C.ar    1  ZINC000543625960   -0.1200
     13 C13       -10.5818    1.9376   54.1503 C.ar    1  ZINC000543625960   -0.0600
     14 C14       -10.0143    0.7023   54.4354 C.ar    1  ZINC000543625960    0.1500
     15 N15       -10.4875   -0.0548   55.5131 N.am    1  ZINC000543625960   -0.6800
     16 C16        -9.7518   -0.1597   56.6374 C.2     1  ZINC000543625960    0.7200
     17 O17        -8.6770    0.4035   56.7155 O.2     1  ZINC000543625960   -0.5600
     18 N18       -10.2074   -0.8888   57.6754 N.am    1  ZINC000543625960   -0.6300
     19 C19       -11.4869   -1.6202   57.7156 C.3     1  ZINC000543625960    0.0900
     20 C20       -11.2720   -2.7376   58.7667 C.3     1  ZINC000543625960   -0.1000
     21 H21       -12.2208   -3.0539   59.2001 H       1  ZINC000543625960    0.1000
     22 C22       -10.5267   -3.9271   58.1580 C.3     1  ZINC000543625960   -0.1500
     23 C23       -10.3945   -2.0103   59.8196 C.3     1  ZINC000543625960   -0.1200
     24 C24        -9.5080   -1.0917   58.9525 C.3     1  ZINC000543625960    0.2000
     25 H25        -8.5412   -1.5647   58.7803 H       1  ZINC000543625960    0.0900
     26 C26        -9.3142    0.2338   59.6428 C.ar    1  ZINC000543625960   -0.1400
     27 C27        -8.2668    0.4153   60.5325 C.ar    1  ZINC000543625960   -0.0600
     28 C28        -8.1270    1.6521   61.1438 C.ar    1  ZINC000543625960   -0.1700
     29 C29        -9.0299    2.6555   60.8480 C.ar    1  ZINC000543625960    0.1000
     30 N30       -10.0148    2.4469   59.9960 N.ar    1  ZINC000543625960   -0.4800
     31 C31       -10.1752    1.2857   59.3923 C.ar    1  ZINC000543625960    0.1200
     32 C32        -8.9799    0.2181   53.6461 C.ar    1  ZINC000543625960   -0.0500
     33 H33        -3.5553    2.3792   49.2271 H       1  ZINC000543625960    0.0600
     34 H34        -3.2458    2.3136   50.9787 H       1  ZINC000543625960    0.0600
     35 H35        -4.2836    1.0876   50.2118 H       1  ZINC000543625960    0.0500
     36 H36        -4.9137    4.0659   50.4345 H       1  ZINC000543625960    0.0700
     37 H37        -5.9515    2.8400   49.6675 H       1  ZINC000543625960    0.0800
     38 H38        -4.9546    4.3926   52.7874 H       1  ZINC000543625960    0.0700
     39 H39        -5.4011    3.0674   53.8886 H       1  ZINC000543625960    0.0700
     40 H40        -3.9529    2.9233   52.8640 H       1  ZINC000543625960    0.0600
     41 H41        -5.0566    0.7639   52.3348 H       1  ZINC000543625960    0.4200
     42 H42        -8.7132    2.7839   51.4736 H       1  ZINC000543625960    0.1400
     43 H43       -10.5535    3.6427   52.8640 H       1  ZINC000543625960    0.1400
     44 H44       -11.3889    2.3153   54.7605 H       1  ZINC000543625960    0.1400
     45 H45       -11.3449   -0.5040   55.4509 H       1  ZINC000543625960    0.4100
     46 H46       -12.2936   -0.9565   58.0269 H       1  ZINC000543625960    0.0700
     47 H47       -11.7066   -2.0541   56.7401 H       1  ZINC000543625960    0.0800
     48 H48        -9.5643   -3.5932   57.7704 H       1  ZINC000543625960    0.0600
     49 H49       -10.3666   -4.6860   58.9240 H       1  ZINC000543625960    0.0600
     50 H50       -11.1186   -4.3498   57.3461 H       1  ZINC000543625960    0.0600
     51 H51       -11.0136   -1.4249   60.4995 H       1  ZINC000543625960    0.0800
     52 H52        -9.7827   -2.7241   60.3712 H       1  ZINC000543625960    0.0900
     53 H53        -7.5763   -0.3875   60.7448 H       1  ZINC000543625960    0.1300
     54 H54        -7.3228    1.8289   61.8428 H       1  ZINC000543625960    0.1400
     55 H55        -8.9281    3.6214   61.3202 H       1  ZINC000543625960    0.1600
     56 H56       -10.9938    1.1524   58.7005 H       1  ZINC000543625960    0.1400
     57 H57        -8.5364   -0.7420   53.8651 H       1  ZINC000543625960    0.1400
@<TRIPOS>BOND
     1     1     2    1
     2     1    33    1
     3     1    34    1
     4     1    35    1
     5     2     3    1
     6     2    36    1
     7     2    37    1
     8     3     4    1
     9     3     5    1
    10     3     6    1
    11     5    38    1
    12     5    39    1
    13     5    40    1
    14     6     7   am
    15     6    41    1
    16     7     8    2
    17     7     9    2
    18     7    10    1
    19    10    32   ar
    20    10    11   ar
    21    11    12   ar
    22    11    42    1
    23    12    13   ar
    24    12    43    1
    25    13    14   ar
    26    13    44    1
    27    14    15    1
    28    14    32   ar
    29    15    16   am
    30    15    45    1
    31    16    17    2
    32    16    18   am
    33    18    24    1
    34    18    19    1
    35    19    20    1
    36    19    46    1
    37    19    47    1
    38    20    21    1
    39    20    22    1
    40    20    23    1
    41    22    48    1
    42    22    49    1
    43    22    50    1
    44    23    24    1
    45    23    51    1
    46    23    52    1
    47    24    25    1
    48    24    26    1
    49    26    31   ar
    50    26    27   ar
    51    27    28   ar
    52    27    53    1
    53    28    29   ar
    54    28    54    1
    55    29    30   ar
    56    29    55    1
    57    30    31   ar
    58    31    56    1
    59    32    57    1
@<TRIPOS>SUBSTRUCTURE
     1 ZINC000543625960        1 TEMP              0 ****  ****    0 ROOT


##########                                Name:    ZINC001058772245
##########                DOCK_Rotatable_Bonds:                  11
##########                         Heavy_Atoms:                  22
##########                    Molecular_Weight:             335.375
##########                DOCK_Rotatable_Bonds:                  11
##########                       Formal_Charge:          0.00999964
##########                     HBond_Acceptors:                   9
##########                        HBond_Donors:                   2
##########                         Heavy_Atoms:                  22
##########                          Grid_Score:          -31.649733
##########                     Grid_vdw_energy:          -31.722691
##########                      Grid_es_energy:            0.072958
##########           Internal_energy_repulsive:           64.161400

@<TRIPOS>MOLECULE
ZINC001058772245
 41 41 1 0 0
SMALL
USER_CHARGES


@<TRIPOS>ATOM
      1 C1        -10.3910    1.2266   52.1904 C.3     1  ZINC001058772245   -0.1700
      2 C2         -8.9875    0.9523   52.7340 C.3     1  ZINC001058772245   -0.1400
      3 C3         -8.9779   -0.3910   53.4664 C.3     1  ZINC001058772245   -0.1500
      4 C4         -8.0059    0.9084   51.5914 C.2     1  ZINC001058772245    0.5300
      5 O5         -7.5458   -0.1532   51.2277 O.2     1  ZINC001058772245   -0.5200
      6 N6         -7.6394    2.0489   50.9737 N.am    1  ZINC001058772245   -0.5900
      7 C7         -8.1952    3.3311   51.4130 C.3     1  ZINC001058772245    0.0800
      8 C8         -8.2385    4.3004   50.2300 C.3     1  ZINC001058772245    0.0400
      9 O9         -9.1368    3.8007   49.2373 O.3     1  ZINC001058772245   -0.5700
     10 C10        -6.6851    2.0062   49.8629 C.3     1  ZINC001058772245    0.1100
     11 C11        -5.2933    2.3871   50.3713 C.3     1  ZINC001058772245    0.1000
     12 N12        -4.2902    1.5261   49.7398 N.am    1  ZINC001058772245   -0.7100
     13 C13        -2.9795    1.8127   49.8676 C.2     1  ZINC001058772245    0.6000
     14 O14        -2.6293    2.7854   50.5084 O.2     1  ZINC001058772245   -0.5300
     15 C15        -1.9713    0.9482   49.2314 C.2     1  ZINC001058772245    0.0000
     16 C16        -0.6403    1.1173   49.3997 C.2     1  ZINC001058772245   -0.2200
     17 S17         0.1857   -0.0808   48.5028 S.3     1  ZINC001058772245    0.2300
     18 C18        -1.2923   -0.7379   47.9551 C.2     1  ZINC001058772245    0.0000
     19 N19        -2.2862   -0.0795   48.4386 N.2     1  ZINC001058772245   -0.4400
     20 C20        -8.5901    2.0655   53.7053 C.3     1  ZINC001058772245    0.2900
     21 F21        -8.9759    1.7120   55.0028 F       1  ZINC001058772245   -0.1900
     22 F22        -7.2034    2.2473   53.6644 F       1  ZINC001058772245   -0.2000
     23 H23       -11.0412    1.5429   53.0061 H       1  ZINC001058772245    0.0800
     24 H24       -10.3419    2.0145   51.4387 H       1  ZINC001058772245    0.0700
     25 H25       -10.7900    0.3182   51.7390 H       1  ZINC001058772245    0.0900
     26 H26        -8.9980   -1.2020   52.7384 H       1  ZINC001058772245    0.0800
     27 H27        -8.0746   -0.4684   54.0717 H       1  ZINC001058772245    0.0700
     28 H28        -9.8542   -0.4596   54.1110 H       1  ZINC001058772245    0.0900
     29 H29        -9.2049    3.1778   51.7943 H       1  ZINC001058772245    0.0900
     30 H30        -7.5685    3.7477   52.2015 H       1  ZINC001058772245    0.1200
     31 H31        -8.5819    5.2765   50.5724 H       1  ZINC001058772245    0.0600
     32 H32        -7.2406    4.3959   49.8019 H       1  ZINC001058772245    0.0700
     33 H33        -9.1983    4.3554   48.4476 H       1  ZINC001058772245    0.3800
     34 H34        -6.6569    0.9993   49.4466 H       1  ZINC001058772245    0.1000
     35 H35        -6.9950    2.7102   49.0905 H       1  ZINC001058772245    0.0900
     36 H36        -5.0875    3.4280   50.1217 H       1  ZINC001058772245    0.0700
     37 H37        -5.2537    2.2581   51.4529 H       1  ZINC001058772245    0.0700
     38 H38        -4.5693    0.7497   49.2298 H       1  ZINC001058772245    0.4100
     39 H39        -0.1754    1.8836   50.0021 H       1  ZINC001058772245    0.1900
     40 H40        -1.3805   -1.5898   47.2973 H       1  ZINC001058772245    0.2100
     41 H41        -9.0866    2.9925   53.4185 H       1  ZINC001058772245    0.1200
@<TRIPOS>BOND
     1     1     2    1
     2     1    23    1
     3     1    24    1
     4     1    25    1
     5     2     3    1
     6     2     4    1
     7     2    20    1
     8     3    26    1
     9     3    27    1
    10     3    28    1
    11     4     5    2
    12     4     6   am
    13     6     7    1
    14     6    10    1
    15     7     8    1
    16     7    29    1
    17     7    30    1
    18     8     9    1
    19     8    31    1
    20     8    32    1
    21     9    33    1
    22    10    11    1
    23    10    34    1
    24    10    35    1
    25    11    12    1
    26    11    36    1
    27    11    37    1
    28    12    13   am
    29    12    38    1
    30    13    14    2
    31    13    15    1
    32    15    19    1
    33    15    16    2
    34    16    17    1
    35    16    39    1
    36    17    18    1
    37    18    19    2
    38    18    40    1
    39    20    21    1
    40    20    22    1
    41    20    41    1
@<TRIPOS>SUBSTRUCTURE
     1 ZINC001058772245        1 TEMP              0 ****  ****    0 ROOT


##########                                Name:    ZINC000842947763
##########                DOCK_Rotatable_Bonds:                   7
##########                         Heavy_Atoms:                  24
##########                    Molecular_Weight:             365.373
##########                DOCK_Rotatable_Bonds:                   7
##########                       Formal_Charge:          0.00999997
##########                     HBond_Acceptors:                   9
##########                        HBond_Donors:                   0
##########                         Heavy_Atoms:                  24
##########                          Grid_Score:          -31.631529
##########                     Grid_vdw_energy:          -30.885384
##########                      Grid_es_energy:           -0.746145
##########           Internal_energy_repulsive:           34.253510

@<TRIPOS>MOLECULE
ZINC000842947763
 42 43 1 0 0
SMALL
USER_CHARGES


@<TRIPOS>ATOM
      1 C1         -7.3555    1.8165   49.8962 C.3     1  ZINC000842947763   -0.1600
      2 C2         -6.4538    1.2263   50.9822 C.3     1  ZINC000842947763   -0.1000
      3 H3         -5.6244    0.6943   50.5164 H       1  ZINC000842947763    0.1000
      4 C4         -7.2627    0.2549   51.8444 C.3     1  ZINC000842947763    0.0800
      5 O5         -8.6277    0.7353   51.9639 O.3     1  ZINC000842947763   -0.3500
      6 C6         -8.9596    1.3554   53.1134 C.2     1  ZINC000842947763    0.5200
      7 O7         -9.1630    2.5534   53.1206 O.2     1  ZINC000842947763   -0.5100
      8 C8         -9.0756    0.5807   54.3618 C.ar    1  ZINC000842947763   -0.1600
      9 C9         -8.2312    0.8553   55.4422 C.ar    1  ZINC000842947763   -0.0200
     10 C10        -8.3446    0.1297   56.6030 C.ar    1  ZINC000842947763   -0.1700
     11 C11        -9.3023   -0.8860   56.7122 C.ar    1  ZINC000842947763    0.2000
     12 C12       -10.1369   -1.1513   55.6327 C.ar    1  ZINC000842947763   -0.1500
     13 C13       -10.0343   -0.4304   54.4765 C.ar    1  ZINC000842947763   -0.0100
     14 C14       -11.0671   -2.2819   56.0138 C.3     1  ZINC000842947763   -0.0800
     15 C15       -10.6659   -2.6399   57.4541 C.3     1  ZINC000842947763    0.1100
     16 N16        -9.5728   -1.7233   57.7877 N.am    1  ZINC000842947763   -0.9400
     17 S17        -8.7742   -1.6900   59.2379 S.o2    1  ZINC000842947763    2.6100
     18 C18       -10.0670   -1.3304   60.4586 C.3     1  ZINC000842947763   -0.6700
     19 O19        -8.2889   -3.0156   59.4013 O.2     1  ZINC000842947763   -0.9300
     20 O20        -7.8801   -0.5918   59.1205 O.2     1  ZINC000842947763   -0.9400
     21 C21        -5.9077    2.3540   51.8601 C.3     1  ZINC000842947763   -0.1600
     22 C22        -4.9554    3.2247   51.0380 C.3     1  ZINC000842947763    0.4600
     23 F23        -5.6947    4.1509   50.2946 F       1  ZINC000842947763   -0.1800
     24 F24        -4.0855    3.9044   51.8975 F       1  ZINC000842947763   -0.1800
     25 F25        -4.2150    2.4149   50.1701 F       1  ZINC000842947763   -0.1800
     26 H26        -6.7519    2.3974   49.1989 H       1  ZINC000842947763    0.0700
     27 H27        -7.8545    1.0093   49.3599 H       1  ZINC000842947763    0.0700
     28 H28        -8.1027    2.4634   50.3561 H       1  ZINC000842947763    0.0600
     29 H29        -7.2637   -0.7303   51.3782 H       1  ZINC000842947763    0.0800
     30 H30        -6.8131    0.1878   52.8351 H       1  ZINC000842947763    0.0800
     31 H31        -7.4901    1.6370   55.3638 H       1  ZINC000842947763    0.1500
     32 H32        -7.6913    0.3436   57.4361 H       1  ZINC000842947763    0.1500
     33 H33       -10.6899   -0.6477   53.6463 H       1  ZINC000842947763    0.1400
     34 H34       -12.1046   -1.9493   55.9791 H       1  ZINC000842947763    0.1000
     35 H35       -10.9182   -3.1364   55.3535 H       1  ZINC000842947763    0.1000
     36 H36       -11.5072   -2.4870   58.1301 H       1  ZINC000842947763    0.1000
     37 H37       -10.3218   -3.6729   57.5051 H       1  ZINC000842947763    0.0900
     38 H38       -10.8233   -2.1149   60.4284 H       1  ZINC000842947763    0.1300
     39 H39        -9.6253   -1.2897   61.4543 H       1  ZINC000842947763    0.1400
     40 H40       -10.5292   -0.3710   60.2265 H       1  ZINC000842947763    0.1300
     41 H41        -6.7344    2.9638   52.2243 H       1  ZINC000842947763    0.1200
     42 H42        -5.3702    1.9273   52.7070 H       1  ZINC000842947763    0.1100
@<TRIPOS>BOND
     1     1     2    1
     2     1    26    1
     3     1    27    1
     4     1    28    1
     5     2     3    1
     6     2     4    1
     7     2    21    1
     8     4     5    1
     9     4    29    1
    10     4    30    1
    11     5     6    1
    12     6     7    2
    13     6     8    1
    14     8    13   ar
    15     8     9   ar
    16     9    10   ar
    17     9    31    1
    18    10    11   ar
    19    10    32    1
    20    11    16    1
    21    11    12   ar
    22    12    13   ar
    23    12    14    1
    24    13    33    1
    25    14    15    1
    26    14    34    1
    27    14    35    1
    28    15    16    1
    29    15    36    1
    30    15    37    1
    31    16    17   am
    32    17    18    1
    33    17    19    2
    34    17    20    2
    35    18    38    1
    36    18    39    1
    37    18    40    1
    38    21    22    1
    39    21    41    1
    40    21    42    1
    41    22    23    1
    42    22    24    1
    43    22    25    1
@<TRIPOS>SUBSTRUCTURE
     1 ZINC000842947763        1 TEMP              0 ****  ****    0 ROOT


##########                                Name:    ZINC000970996691
##########                DOCK_Rotatable_Bonds:                   7
##########                         Heavy_Atoms:                  24
##########                    Molecular_Weight:             334.462
##########                DOCK_Rotatable_Bonds:                   7
##########                       Formal_Charge:          -0.0199999
##########                     HBond_Acceptors:                   6
##########                        HBond_Donors:                   0
##########                         Heavy_Atoms:                  24
##########                          Grid_Score:          -31.607601
##########                     Grid_vdw_energy:          -30.685390
##########                      Grid_es_energy:           -0.922210
##########           Internal_energy_repulsive:           13.712431

@<TRIPOS>MOLECULE
ZINC000970996691
 54 56 1 0 0
SMALL
USER_CHARGES


@<TRIPOS>ATOM
      1 C1        -10.3270    1.1875   62.3594 C.3     1  ZINC000970996691   -0.1500
      2 C2         -8.8855    1.0964   61.8550 C.3     1  ZINC000970996691   -0.1200
      3 C3         -8.5141   -0.3715   61.6348 C.3     1  ZINC000970996691   -0.0300
      4 C4         -9.4185   -0.9666   60.5865 C.2     1  ZINC000970996691    0.1800
      5 N5         -9.9008   -0.3541   59.5322 N.2     1  ZINC000970996691   -0.4700
      6 C6        -10.6485   -1.2704   58.8916 C.2     1  ZINC000970996691    0.1800
      7 C7        -11.4192   -1.0577   57.6141 C.3     1  ZINC000970996691    0.1500
      8 N8        -10.6667   -1.6261   56.4879 N.3     1  ZINC000970996691   -0.5200
      9 C9        -11.4530   -2.6557   55.7954 C.3     1  ZINC000970996691    0.0200
     10 C10       -10.2398   -0.5741   55.5555 C.3     1  ZINC000970996691    0.0700
     11 H11       -11.0620    0.1066   55.3348 H       1  ZINC000970996691    0.0600
     12 C12        -9.0133    0.1970   56.1109 C.3     1  ZINC000970996691   -0.1300
     13 C13        -8.3197    0.7107   54.8316 C.3     1  ZINC000970996691    0.1000
     14 N14        -8.7547   -0.1515   53.7230 N.am    1  ZINC000970996691   -0.6200
     15 C15        -8.3858   -0.0192   52.4335 C.2     1  ZINC000970996691    0.5300
     16 O16        -8.8083   -0.7916   51.5994 O.2     1  ZINC000970996691   -0.5300
     17 C17        -7.4482    1.0888   52.0280 C.3     1  ZINC000970996691   -0.1000
     18 C18        -6.3855    0.5351   51.0768 C.3     1  ZINC000970996691   -0.1100
     19 C19        -5.4336    1.6601   50.6651 C.3     1  ZINC000970996691   -0.1200
     20 C20        -6.2238    2.7641   49.9598 C.3     1  ZINC000970996691   -0.1200
     21 C21        -7.2867    3.3179   50.9109 C.3     1  ZINC000970996691   -0.1200
     22 C22        -8.2385    2.1929   51.3226 C.3     1  ZINC000970996691   -0.1000
     23 C23        -9.6611   -1.1859   54.2553 C.3     1  ZINC000970996691    0.1200
     24 N24       -10.5839   -2.3729   59.5763 N.2     1  ZINC000970996691   -0.3800
     25 O25        -9.8776   -2.2213   60.5507 O.3     1  ZINC000970996691    0.0800
     26 H26       -10.9987    0.7496   61.6211 H       1  ZINC000970996691    0.0600
     27 H27       -10.4177    0.6446   63.3003 H       1  ZINC000970996691    0.0600
     28 H28       -10.5917    2.2332   62.5163 H       1  ZINC000970996691    0.0600
     29 H29        -8.7948    1.6392   60.9141 H       1  ZINC000970996691    0.0700
     30 H30        -8.2138    1.5343   62.5933 H       1  ZINC000970996691    0.0700
     31 H31        -7.4785   -0.4380   61.3013 H       1  ZINC000970996691    0.1100
     32 H32        -8.6309   -0.9200   62.5693 H       1  ZINC000970996691    0.1000
     33 H33       -12.3888   -1.5497   57.6886 H       1  ZINC000970996691    0.0700
     34 H34       -11.5652    0.0103   57.4515 H       1  ZINC000970996691    0.1100
     35 H35       -12.3735   -2.2142   55.4135 H       1  ZINC000970996691    0.0300
     36 H36       -10.8725   -3.0598   54.9662 H       1  ZINC000970996691    0.0800
     37 H37       -11.6966   -3.4571   56.4931 H       1  ZINC000970996691    0.0700
     38 H38        -9.3326    1.0298   56.7374 H       1  ZINC000970996691    0.0800
     39 H39        -8.3548   -0.4728   56.6642 H       1  ZINC000970996691    0.0900
     40 H40        -8.6160    1.7415   54.6377 H       1  ZINC000970996691    0.0700
     41 H41        -7.2375    0.6492   54.9463 H       1  ZINC000970996691    0.0700
     42 H42        -6.9645    1.4982   52.9148 H       1  ZINC000970996691    0.0900
     43 H43        -5.8225   -0.2514   51.5794 H       1  ZINC000970996691    0.0700
     44 H44        -6.8692    0.1258   50.1900 H       1  ZINC000970996691    0.0700
     45 H45        -4.9499    2.0694   51.5519 H       1  ZINC000970996691    0.0600
     46 H46        -4.6764    1.2656   49.9876 H       1  ZINC000970996691    0.0700
     47 H47        -5.5457    3.5656   49.6665 H       1  ZINC000970996691    0.0600
     48 H48        -6.7076    2.3547   49.0730 H       1  ZINC000970996691    0.0600
     49 H49        -6.8029    3.7272   51.7977 H       1  ZINC000970996691    0.0600
     50 H50        -7.8496    4.1044   50.4084 H       1  ZINC000970996691    0.0700
     51 H51        -8.7223    1.7836   50.4358 H       1  ZINC000970996691    0.0800
     52 H52        -8.9957    2.5874   52.0002 H       1  ZINC000970996691    0.0600
     53 H53        -9.1067   -2.0971   54.4797 H       1  ZINC000970996691    0.0800
     54 H54       -10.4604   -1.3926   53.5436 H       1  ZINC000970996691    0.0800
@<TRIPOS>BOND
     1     1     2    1
     2     1    26    1
     3     1    27    1
     4     1    28    1
     5     2     3    1
     6     2    29    1
     7     2    30    1
     8     3     4    1
     9     3    31    1
    10     3    32    1
    11     4    25    1
    12     4     5    2
    13     5     6    1
    14     6     7    1
    15     6    24    2
    16     7     8    1
    17     7    33    1
    18     7    34    1
    19     8     9    1
    20     8    10    1
    21     9    35    1
    22     9    36    1
    23     9    37    1
    24    10    11    1
    25    10    23    1
    26    10    12    1
    27    12    13    1
    28    12    38    1
    29    12    39    1
    30    13    14    1
    31    13    40    1
    32    13    41    1
    33    14    15   am
    34    14    23    1
    35    15    16    2
    36    15    17    1
    37    17    22    1
    38    17    18    1
    39    17    42    1
    40    18    19    1
    41    18    43    1
    42    18    44    1
    43    19    20    1
    44    19    45    1
    45    19    46    1
    46    20    21    1
    47    20    47    1
    48    20    48    1
    49    21    22    1
    50    21    49    1
    51    21    50    1
    52    22    51    1
    53    22    52    1
    54    23    53    1
    55    23    54    1
    56    24    25    1
@<TRIPOS>SUBSTRUCTURE
     1 ZINC000970996691        1 TEMP              0 ****  ****    0 ROOT


##########                                Name:    ZINC001570985666
##########                DOCK_Rotatable_Bonds:                   7
##########                         Heavy_Atoms:                  26
##########                    Molecular_Weight:             357.415
##########                DOCK_Rotatable_Bonds:                   7
##########                       Formal_Charge:          -0.0100001
##########                     HBond_Acceptors:                   9
##########                        HBond_Donors:                   3
##########                         Heavy_Atoms:                  26
##########                          Grid_Score:          -31.592741
##########                     Grid_vdw_energy:          -31.910358
##########                      Grid_es_energy:            0.317617
##########           Internal_energy_repulsive:           12.128315

@<TRIPOS>MOLECULE
ZINC001570985666
 49 52 1 0 0
SMALL
USER_CHARGES


@<TRIPOS>ATOM
      1 C1         -7.9794    3.0078   53.4222 C.3     1  ZINC001570985666   -0.1600
      2 C2         -7.4513    1.6338   53.0049 C.3     1  ZINC001570985666    0.1300
      3 H3         -6.6328    1.3367   53.6605 H       1  ZINC001570985666    0.0800
      4 C4         -6.9614    1.6820   51.5422 C.3     1  ZINC001570985666    0.1400
      5 H5         -7.4430    2.4963   51.0008 H       1  ZINC001570985666    0.1100
      6 N6         -5.5036    1.8170   51.4882 N.am    1  ZINC001570985666   -0.7200
      7 C7         -4.8912    2.0450   50.3095 C.2     1  ZINC001570985666    0.6000
      8 O8         -5.5489    2.1403   49.2909 O.2     1  ZINC001570985666   -0.5300
      9 C9         -3.4252    2.1791   50.2549 C.2     1  ZINC001570985666   -0.2300
     10 C10        -2.6575    3.0837   50.9561 C.2     1  ZINC001570985666    0.0700
     11 N11        -1.3651    2.8828   50.6300 N.pl3   1  ZINC001570985666   -0.5200
     12 C12        -1.2812    1.8556   49.7228 C.2     1  ZINC001570985666    0.0600
     13 C13        -0.0341    1.3329   49.1210 C.2     1  ZINC001570985666    0.2500
     14 N14         0.0734    0.3135   48.2898 N.2     1  ZINC001570985666   -0.3100
     15 N15         1.3205    0.1752   47.9955 N.pl3   1  ZINC001570985666   -0.2200
     16 N16         2.0065    1.0728   48.6123 N.2     1  ZINC001570985666   -0.0400
     17 N17         1.2071    1.8066   49.3094 N.2     1  ZINC001570985666   -0.2600
     18 C18        -2.5341    1.3970   49.4751 C.2     1  ZINC001570985666   -0.0600
     19 C19        -7.4105    0.3075   50.9799 C.3     1  ZINC001570985666   -0.1500
     20 C20        -8.7546    0.0929   51.7195 C.3     1  ZINC001570985666    0.1000
     21 N21        -8.5329    0.6404   53.0738 N.am    1  ZINC001570985666   -0.6200
     22 C22        -9.2109    0.2881   54.1841 C.2     1  ZINC001570985666    0.5300
     23 O23        -8.9438    0.8061   55.2476 O.2     1  ZINC001570985666   -0.5300
     24 C24       -10.3009   -0.7494   54.1039 C.3     1  ZINC001570985666   -0.1300
     25 C25       -11.0799   -0.7735   55.4205 C.3     1  ZINC001570985666   -0.1000
     26 C26       -11.8768   -2.0700   55.6412 C.3     1  ZINC001570985666   -0.1300
     27 C27       -11.4438   -1.9925   57.1148 C.3     1  ZINC001570985666   -0.1400
     28 C28       -10.2278   -1.1836   56.6332 C.3     1  ZINC001570985666   -0.1400
     29 H29        -8.3288    2.9648   54.4539 H       1  ZINC001570985666    0.0700
     30 H30        -7.1805    3.7446   53.3395 H       1  ZINC001570985666    0.0700
     31 H31        -8.8054    3.2929   52.7706 H       1  ZINC001570985666    0.0600
     32 H32        -4.9791    1.7423   52.3008 H       1  ZINC001570985666    0.4000
     33 H33        -3.0277    3.8263   51.6473 H       1  ZINC001570985666    0.1800
     34 H34        -0.6131    3.3850   50.9809 H       1  ZINC001570985666    0.4300
     35 H35         1.6851   -0.5000   47.4021 H       1  ZINC001570985666    0.4800
     36 H36        -2.8028    0.5931   48.8058 H       1  ZINC001570985666    0.1600
     37 H37        -7.5614    0.3570   49.9015 H       1  ZINC001570985666    0.0900
     38 H38        -6.6941   -0.4729   51.2371 H       1  ZINC001570985666    0.0800
     39 H39        -9.5552    0.6351   51.2163 H       1  ZINC001570985666    0.0800
     40 H40        -8.9915   -0.9695   51.7753 H       1  ZINC001570985666    0.0800
     41 H41       -10.9776   -0.5030   53.2858 H       1  ZINC001570985666    0.0900
     42 H42        -9.8575   -1.7292   53.9262 H       1  ZINC001570985666    0.0900
     43 H43       -11.6637    0.1325   55.5835 H       1  ZINC001570985666    0.1000
     44 H44       -12.9506   -1.9528   55.4949 H       1  ZINC001570985666    0.0700
     45 H45       -11.4676   -2.9297   55.1105 H       1  ZINC001570985666    0.0800
     46 H46       -12.1281   -1.4206   57.7414 H       1  ZINC001570985666    0.0800
     47 H47       -11.1825   -2.9595   57.5445 H       1  ZINC001570985666    0.0700
     48 H48        -9.3677   -1.8010   56.3736 H       1  ZINC001570985666    0.0800
     49 H49        -9.9703   -0.3509   57.2876 H       1  ZINC001570985666    0.0700
@<TRIPOS>BOND
     1     1     2    1
     2     1    29    1
     3     1    30    1
     4     1    31    1
     5     2     3    1
     6     2    21    1
     7     2     4    1
     8     4     5    1
     9     4     6    1
    10     4    19    1
    11     6     7   am
    12     6    32    1
    13     7     8    2
    14     7     9    1
    15     9    18    1
    16     9    10    2
    17    10    11    1
    18    10    33    1
    19    11    12    1
    20    11    34    1
    21    12    13    1
    22    12    18    2
    23    13    17    1
    24    13    14    2
    25    14    15    1
    26    15    16    1
    27    15    35    1
    28    16    17    2
    29    18    36    1
    30    19    20    1
    31    19    37    1
    32    19    38    1
    33    20    21    1
    34    20    39    1
    35    20    40    1
    36    21    22   am
    37    22    23    2
    38    22    24    1
    39    24    25    1
    40    24    41    1
    41    24    42    1
    42    25    28    1
    43    25    26    1
    44    25    43    1
    45    26    27    1
    46    26    44    1
    47    26    45    1
    48    27    28    1
    49    27    46    1
    50    27    47    1
    51    28    48    1
    52    28    49    1
@<TRIPOS>SUBSTRUCTURE
     1 ZINC001570985666        1 TEMP              0 ****  ****    0 ROOT


##########                                Name:    ZINC000329637067
##########                DOCK_Rotatable_Bonds:                   5
##########                         Heavy_Atoms:                  26
##########                    Molecular_Weight:             362.429
##########                DOCK_Rotatable_Bonds:                   5
##########                       Formal_Charge:           0.0199998
##########                     HBond_Acceptors:                   8
##########                        HBond_Donors:                   0
##########                         Heavy_Atoms:                  26
##########                          Grid_Score:          -31.574583
##########                     Grid_vdw_energy:          -29.846504
##########                      Grid_es_energy:           -1.728080
##########           Internal_energy_repulsive:           31.027390

@<TRIPOS>MOLECULE
ZINC000329637067
 52 54 1 0 0
SMALL
USER_CHARGES


@<TRIPOS>ATOM
      1 C1         -8.1173    0.4050   55.9284 C.3     1  ZINC000329637067   -0.1300
      2 C2         -8.4482    0.0698   54.4969 C.2     1  ZINC000329637067    0.2200
      3 C3         -7.5351    0.2825   53.5113 C.2     1  ZINC000329637067   -0.2900
      4 C4         -7.8713   -0.0383   52.1928 C.2     1  ZINC000329637067    0.2800
      5 C5         -6.8769    0.1877   51.0833 C.3     1  ZINC000329637067   -0.1200
      6 N6         -9.0597   -0.5392   51.9227 N.2     1  ZINC000329637067   -0.5500
      7 C7         -9.9519   -0.7458   52.8944 C.2     1  ZINC000329637067    0.6400
      8 O8        -11.0449   -1.2106   52.6178 O.2     1  ZINC000329637067   -0.5300
      9 N9         -9.6601   -0.4537   54.1757 N.am    1  ZINC000329637067   -0.5000
     10 C10       -10.6556   -0.6898   55.2243 C.3     1  ZINC000329637067    0.0700
     11 C11       -10.4400   -2.0558   55.8233 C.2     1  ZINC000329637067    0.5100
     12 O12        -9.8482   -2.9072   55.1942 O.2     1  ZINC000329637067   -0.5200
     13 N13       -10.9047   -2.3311   57.0581 N.am    1  ZINC000329637067   -0.6100
     14 C14       -10.7022   -3.6582   57.6554 C.3     1  ZINC000329637067    0.1000
     15 C15       -10.0393   -3.4863   59.0256 C.3     1  ZINC000329637067   -0.1400
     16 C16       -10.8806   -2.5346   59.8791 C.3     1  ZINC000329637067   -0.1000
     17 C17       -10.9500   -1.1645   59.2008 C.3     1  ZINC000329637067   -0.1200
     18 H18        -9.9416   -0.7718   59.0701 H       1  ZINC000329637067    0.1000
     19 C19       -11.7508   -0.2187   60.0582 C.2     1  ZINC000329637067    0.5300
     20 O20       -12.8855    0.0717   59.7437 O.2     1  ZINC000329637067   -0.5300
     21 N21       -11.2060    0.3045   61.1744 N.am    1  ZINC000329637067   -0.6200
     22 C22        -9.8290   -0.0281   61.5728 C.3     1  ZINC000329637067    0.0800
     23 C23        -9.0769    1.2785   61.8503 C.3     1  ZINC000329637067    0.0500
     24 O24        -9.8313    2.0690   62.7723 O.3     1  ZINC000329637067   -0.3800
     25 C25       -11.1139    2.4713   62.2856 C.3     1  ZINC000329637067    0.0500
     26 C26       -11.9683    1.2301   62.0273 C.3     1  ZINC000329637067    0.0700
     27 C27       -11.6179   -1.3082   57.8349 C.3     1  ZINC000329637067    0.1200
     28 H28        -8.2568   -0.4794   56.5502 H       1  ZINC000329637067    0.0900
     29 H29        -7.0806    0.7354   55.9939 H       1  ZINC000329637067    0.1000
     30 H30        -8.7751    1.2012   56.2766 H       1  ZINC000329637067    0.0900
     31 H31        -6.5641    0.6940   53.7441 H       1  ZINC000329637067    0.1600
     32 H32        -6.2685   -0.7073   50.9528 H       1  ZINC000329637067    0.1000
     33 H33        -7.4090    0.4036   50.1567 H       1  ZINC000329637067    0.0900
     34 H34        -6.2339    1.0303   51.3377 H       1  ZINC000329637067    0.0900
     35 H35       -10.5520    0.0679   56.0009 H       1  ZINC000329637067    0.1200
     36 H36       -11.6558   -0.6353   54.7945 H       1  ZINC000329637067    0.1300
     37 H37       -11.6646   -4.1557   57.7749 H       1  ZINC000329637067    0.0800
     38 H38       -10.0577   -4.2550   57.0099 H       1  ZINC000329637067    0.0900
     39 H39        -9.9709   -4.4549   59.5208 H       1  ZINC000329637067    0.0900
     40 H40        -9.0394   -3.0718   58.8966 H       1  ZINC000329637067    0.0700
     41 H41       -11.8876   -2.9377   59.9872 H       1  ZINC000329637067    0.0800
     42 H42       -10.4241   -2.4298   60.8634 H       1  ZINC000329637067    0.0800
     43 H43        -9.8455   -0.6408   62.4741 H       1  ZINC000329637067    0.0800
     44 H44        -9.3351   -0.5720   60.7675 H       1  ZINC000329637067    0.1000
     45 H45        -8.1003    1.0526   62.2785 H       1  ZINC000329637067    0.1100
     46 H46        -8.9483    1.8296   60.9188 H       1  ZINC000329637067    0.0600
     47 H47       -11.6027    3.1034   63.0270 H       1  ZINC000329637067    0.1100
     48 H48       -10.9926    3.0266   61.3557 H       1  ZINC000329637067    0.0600
     49 H49       -12.8918    1.5182   61.5252 H       1  ZINC000329637067    0.1000
     50 H50       -12.2012    0.7414   62.9734 H       1  ZINC000329637067    0.0800
     51 H51       -11.5803   -0.3549   57.3077 H       1  ZINC000329637067    0.1000
     52 H52       -12.6556   -1.6149   57.9661 H       1  ZINC000329637067    0.0800
@<TRIPOS>BOND
     1     1     2    1
     2     1    28    1
     3     1    29    1
     4     1    30    1
     5     2     9    1
     6     2     3    2
     7     3     4    1
     8     3    31    1
     9     4     5    1
    10     4     6    2
    11     5    32    1
    12     5    33    1
    13     5    34    1
    14     6     7    1
    15     7     8    2
    16     7     9   am
    17     9    10    1
    18    10    11    1
    19    10    35    1
    20    10    36    1
    21    11    12    2
    22    11    13   am
    23    13    27    1
    24    13    14    1
    25    14    15    1
    26    14    37    1
    27    14    38    1
    28    15    16    1
    29    15    39    1
    30    15    40    1
    31    16    17    1
    32    16    41    1
    33    16    42    1
    34    17    18    1
    35    17    19    1
    36    17    27    1
    37    19    20    2
    38    19    21   am
    39    21    26    1
    40    21    22    1
    41    22    23    1
    42    22    43    1
    43    22    44    1
    44    23    24    1
    45    23    45    1
    46    23    46    1
    47    24    25    1
    48    25    26    1
    49    25    47    1
    50    25    48    1
    51    26    49    1
    52    26    50    1
    53    27    51    1
    54    27    52    1
@<TRIPOS>SUBSTRUCTURE
     1 ZINC000329637067        1 TEMP              0 ****  ****    0 ROOT


##########                                Name:    ZINC001143596311
##########                DOCK_Rotatable_Bonds:                   9
##########                         Heavy_Atoms:                  21
##########                    Molecular_Weight:             335.811
##########                DOCK_Rotatable_Bonds:                   9
##########                       Formal_Charge:          0.00999959
##########                     HBond_Acceptors:                   9
##########                        HBond_Donors:                   3
##########                         Heavy_Atoms:                  21
##########                          Grid_Score:          -31.546211
##########                     Grid_vdw_energy:          -30.380682
##########                      Grid_es_energy:           -1.165528
##########           Internal_energy_repulsive:           10.466980

@<TRIPOS>MOLECULE
ZINC001143596311
 39 39 1 0 0
SMALL
USER_CHARGES


@<TRIPOS>ATOM
      1 C1         -2.1160    1.1066   49.0679 C.3     1  ZINC001143596311    0.0400
      2 O2         -3.4697    1.5121   48.8553 O.3     1  ZINC001143596311   -0.2600
      3 N3         -4.1974    1.8245   50.0855 N.3     1  ZINC001143596311   -0.3700
      4 C4         -3.6122    2.9900   50.7617 C.3     1  ZINC001143596311    0.0000
      5 C5         -5.6254    2.0360   49.8131 C.3     1  ZINC001143596311    0.0400
      6 C6         -6.3935    2.0946   51.1349 C.3     1  ZINC001143596311   -0.1300
      7 C7         -7.8407    1.6550   50.9038 C.3     1  ZINC001143596311    0.1200
      8 N8         -8.4406    1.2591   52.1803 N.am    1  ZINC001143596311   -0.7200
      9 C9         -8.2688    0.0060   52.6457 C.2     1  ZINC001143596311    0.5600
     10 O10        -7.6148   -0.7953   52.0071 O.2     1  ZINC001143596311   -0.5200
     11 C11        -8.8755   -0.3940   53.9326 C.ar    1  ZINC001143596311   -0.1500
     12 C12        -9.9903   -1.2340   53.9507 C.ar    1  ZINC001143596311   -0.0200
     13 C13       -10.5521   -1.6038   55.1547 C.ar    1  ZINC001143596311   -0.1300
     14 C14       -10.0126   -1.1433   56.3442 C.ar    1  ZINC001143596311    0.0700
     15 Cl15      -10.7252   -1.6131   57.8559 Cl      1  ZINC001143596311   -0.0200
     16 C16        -8.9063   -0.3095   56.3326 C.ar    1  ZINC001143596311   -0.6800
     17 S17        -8.2266    0.2708   57.8512 S.o2    1  ZINC001143596311    2.7000
     18 N18        -6.9720    1.2829   57.4716 N.am    1  ZINC001143596311   -1.2500
     19 O19        -9.2264    1.0801   58.4549 O.2     1  ZINC001143596311   -0.9400
     20 O20        -7.6506   -0.8598   58.4910 O.2     1  ZINC001143596311   -0.9500
     21 C21        -8.3322    0.0621   55.1354 C.ar    1  ZINC001143596311    0.0500
     22 H22        -1.5715    1.9067   49.5694 H       1  ZINC001143596311    0.0400
     23 H23        -2.0982    0.2107   49.6884 H       1  ZINC001143596311    0.0500
     24 H24        -1.6457    0.8932   48.1080 H       1  ZINC001143596311    0.0900
     25 H25        -3.6573    3.8548   50.0997 H       1  ZINC001143596311    0.0400
     26 H26        -4.1722    3.2003   51.6729 H       1  ZINC001143596311    0.0900
     27 H27        -2.5730    2.7795   51.0143 H       1  ZINC001143596311    0.0800
     28 H28        -5.7574    2.9743   49.2743 H       1  ZINC001143596311    0.0500
     29 H29        -6.0056    1.2130   49.2080 H       1  ZINC001143596311    0.0900
     30 H30        -5.9229    1.4289   51.8585 H       1  ZINC001143596311    0.0800
     31 H31        -6.3805    3.1150   51.5179 H       1  ZINC001143596311    0.0800
     32 H32        -8.4078    2.4822   50.4768 H       1  ZINC001143596311    0.0800
     33 H33        -7.8582    0.8095   50.2163 H       1  ZINC001143596311    0.0800
     34 H34        -8.9615    1.8988   52.6905 H       1  ZINC001143596311    0.4000
     35 H35       -10.4123   -1.5931   53.0237 H       1  ZINC001143596311    0.1500
     36 H36       -11.4146   -2.2535   55.1701 H       1  ZINC001143596311    0.1600
     37 H37        -6.4632    1.7107   58.1780 H       1  ZINC001143596311    0.4200
     38 H38        -6.7459    1.4478   56.5429 H       1  ZINC001143596311    0.4200
     39 H39        -7.4698    0.7121   55.1275 H       1  ZINC001143596311    0.1700
@<TRIPOS>BOND
     1     1     2    1
     2     1    22    1
     3     1    23    1
     4     1    24    1
     5     2     3    1
     6     3     4    1
     7     3     5    1
     8     4    25    1
     9     4    26    1
    10     4    27    1
    11     5     6    1
    12     5    28    1
    13     5    29    1
    14     6     7    1
    15     6    30    1
    16     6    31    1
    17     7     8    1
    18     7    32    1
    19     7    33    1
    20     8     9   am
    21     8    34    1
    22     9    10    2
    23     9    11    1
    24    11    21   ar
    25    11    12   ar
    26    12    13   ar
    27    12    35    1
    28    13    14   ar
    29    13    36    1
    30    14    15    1
    31    14    16   ar
    32    16    17    1
    33    16    21   ar
    34    17    18   am
    35    17    19    2
    36    17    20    2
    37    18    37    1
    38    18    38    1
    39    21    39    1
@<TRIPOS>SUBSTRUCTURE
     1 ZINC001143596311        1 TEMP              0 ****  ****    0 ROOT


##########                                Name:    ZINC000914736341
##########                DOCK_Rotatable_Bonds:                   7
##########                         Heavy_Atoms:                  27
##########                    Molecular_Weight:             384.905
##########                DOCK_Rotatable_Bonds:                   7
##########                       Formal_Charge:                0.02
##########                     HBond_Acceptors:                   5
##########                        HBond_Donors:                   1
##########                         Heavy_Atoms:                  27
##########                          Grid_Score:          -31.542814
##########                     Grid_vdw_energy:          -31.703268
##########                      Grid_es_energy:            0.160455
##########           Internal_energy_repulsive:           24.380991

@<TRIPOS>MOLECULE
ZINC000914736341
 52 54 1 0 0
SMALL
USER_CHARGES


@<TRIPOS>ATOM
      1 C1        -12.1710   -0.5673   56.4037 C.3     1  ZINC000914736341   -0.1400
      2 C2        -11.5525   -1.9428   56.6620 C.3     1  ZINC000914736341   -0.0300
      3 C3        -12.6468   -2.9212   57.0932 C.3     1  ZINC000914736341   -0.1400
      4 C4        -10.8886   -2.4520   55.3811 C.3     1  ZINC000914736341    0.1300
      5 N5         -9.6913   -1.6556   55.1016 N.am    1  ZINC000914736341   -0.7200
      6 C6         -9.7175   -0.7155   54.1362 C.2     1  ZINC000914736341    0.5300
      7 O7        -10.7318   -0.5299   53.4978 O.2     1  ZINC000914736341   -0.5300
      8 C8         -8.4863    0.1051   53.8499 C.3     1  ZINC000914736341   -0.1200
      9 H9         -7.6660   -0.5298   53.5151 H       1  ZINC000914736341    0.1200
     10 C10        -8.0741    0.9349   55.0878 C.3     1  ZINC000914736341   -0.1400
     11 C11        -7.5805    2.2429   54.5100 C.2     1  ZINC000914736341    0.5200
     12 O12        -6.9123    3.0587   55.1091 O.2     1  ZINC000914736341   -0.5200
     13 N13        -7.9898    2.3692   53.2358 N.am    1  ZINC000914736341   -0.6100
     14 C14        -7.6789    3.5151   52.3776 C.3     1  ZINC000914736341    0.1600
     15 C15        -6.3425    3.2990   51.7156 C.ar    1  ZINC000914736341   -0.1000
     16 C16        -5.1774    3.5885   52.4000 C.ar    1  ZINC000914736341   -0.0800
     17 C17        -3.9512    3.3903   51.7928 C.ar    1  ZINC000914736341   -0.1100
     18 C18        -3.8898    2.9031   50.5009 C.ar    1  ZINC000914736341   -0.1000
     19 C19        -5.0545    2.6131   49.8152 C.ar    1  ZINC000914736341   -0.1100
     20 C20        -6.2815    2.8053   50.4244 C.ar    1  ZINC000914736341   -0.0300
     21 Cl21       -7.7447    2.4414   49.5639 Cl      1  ZINC000914736341   -0.0600
     22 C22        -8.7875    1.2110   52.8143 C.3     1  ZINC000914736341    0.1000
     23 C23       -10.5192   -1.8319   57.7535 C.ar    1  ZINC000914736341   -0.0700
     24 C24       -10.3231   -0.6259   58.3997 C.ar    1  ZINC000914736341   -0.1200
     25 C25        -9.3753   -0.5242   59.4008 C.ar    1  ZINC000914736341   -0.1200
     26 C26        -8.6239   -1.6289   59.7559 C.ar    1  ZINC000914736341   -0.1200
     27 C27        -8.8207   -2.8352   59.1103 C.ar    1  ZINC000914736341   -0.1200
     28 C28        -9.7715   -2.9379   58.1121 C.ar    1  ZINC000914736341   -0.1100
     29 H29       -12.6440   -0.2045   57.3162 H       1  ZINC000914736341    0.0600
     30 H30       -11.3914    0.1297   56.0965 H       1  ZINC000914736341    0.0600
     31 H31       -12.9183   -0.6475   55.6142 H       1  ZINC000914736341    0.0600
     32 H32       -13.3941   -3.0014   56.3037 H       1  ZINC000914736341    0.0600
     33 H33       -12.2062   -3.9011   57.2771 H       1  ZINC000914736341    0.0600
     34 H34       -13.1198   -2.5584   58.0057 H       1  ZINC000914736341    0.0600
     35 H35       -10.6081   -3.4976   55.5082 H       1  ZINC000914736341    0.0700
     36 H36       -11.5873   -2.3619   54.5493 H       1  ZINC000914736341    0.0700
     37 H37        -8.8796   -1.8048   55.6114 H       1  ZINC000914736341    0.4000
     38 H38        -8.9334    1.1045   55.7367 H       1  ZINC000914736341    0.1100
     39 H39        -7.2753    0.4335   55.6343 H       1  ZINC000914736341    0.1100
     40 H40        -8.4503    3.6170   51.6141 H       1  ZINC000914736341    0.1000
     41 H41        -7.6430    4.4220   52.9812 H       1  ZINC000914736341    0.1000
     42 H42        -5.2247    3.9699   53.4093 H       1  ZINC000914736341    0.1400
     43 H43        -3.0409    3.6167   52.3281 H       1  ZINC000914736341    0.1300
     44 H44        -2.9317    2.7492   50.0267 H       1  ZINC000914736341    0.1300
     45 H45        -5.0065    2.2324   48.8056 H       1  ZINC000914736341    0.1400
     46 H46        -8.4863    0.8882   51.8177 H       1  ZINC000914736341    0.1000
     47 H47        -9.8488    1.4594   52.8264 H       1  ZINC000914736341    0.0900
     48 H48       -10.9101    0.2371   58.1222 H       1  ZINC000914736341    0.1300
     49 H49        -9.2216    0.4183   59.9052 H       1  ZINC000914736341    0.1200
     50 H50        -7.8829   -1.5493   60.5377 H       1  ZINC000914736341    0.1200
     51 H51        -8.2335   -3.6981   59.3876 H       1  ZINC000914736341    0.1200
     52 H52        -9.9253   -3.8805   57.6078 H       1  ZINC000914736341    0.1200
@<TRIPOS>BOND
     1     1     2    1
     2     1    29    1
     3     1    30    1
     4     1    31    1
     5     2     3    1
     6     2     4    1
     7     2    23    1
     8     3    32    1
     9     3    33    1
    10     3    34    1
    11     4     5    1
    12     4    35    1
    13     4    36    1
    14     5     6   am
    15     5    37    1
    16     6     7    2
    17     6     8    1
    18     8     9    1
    19     8    22    1
    20     8    10    1
    21    10    11    1
    22    10    38    1
    23    10    39    1
    24    11    12    2
    25    11    13   am
    26    13    14    1
    27    13    22    1
    28    14    15    1
    29    14    40    1
    30    14    41    1
    31    15    20   ar
    32    15    16   ar
    33    16    17   ar
    34    16    42    1
    35    17    18   ar
    36    17    43    1
    37    18    19   ar
    38    18    44    1
    39    19    20   ar
    40    19    45    1
    41    20    21    1
    42    22    46    1
    43    22    47    1
    44    23    28   ar
    45    23    24   ar
    46    24    25   ar
    47    24    48    1
    48    25    26   ar
    49    25    49    1
    50    26    27   ar
    51    26    50    1
    52    27    28   ar
    53    27    51    1
    54    28    52    1
@<TRIPOS>SUBSTRUCTURE
     1 ZINC000914736341        1 TEMP              0 ****  ****    0 ROOT


##########                                Name:    ZINC001127302705
##########                DOCK_Rotatable_Bonds:                   9
##########                         Heavy_Atoms:                  28
##########                    Molecular_Weight:             398.892
##########                DOCK_Rotatable_Bonds:                   9
##########                       Formal_Charge:          -0.0200002
##########                     HBond_Acceptors:                   7
##########                        HBond_Donors:                   1
##########                         Heavy_Atoms:                  28
##########                          Grid_Score:          -31.504143
##########                     Grid_vdw_energy:          -32.620239
##########                      Grid_es_energy:            1.116096
##########           Internal_energy_repulsive:           29.011412

@<TRIPOS>MOLECULE
ZINC001127302705
 51 53 1 0 0
SMALL
USER_CHARGES


@<TRIPOS>ATOM
      1 C1         -6.6987    3.9395   54.0236 C.3     1  ZINC001127302705   -0.1500
      2 C2         -5.6557    3.4617   53.0113 C.3     1  ZINC001127302705   -0.1400
      3 C3         -6.3544    3.0565   51.7119 C.3     1  ZINC001127302705    0.1800
      4 C4         -6.7393    4.3120   50.9268 C.3     1  ZINC001127302705   -0.1600
      5 C5         -5.4079    2.1986   50.8698 C.3     1  ZINC001127302705    0.0700
      6 O6         -4.1721    2.8924   50.6868 O.3     1  ZINC001127302705   -0.2800
      7 C7         -3.1547    2.1986   50.1167 C.ar    1  ZINC001127302705    0.3400
      8 N8         -3.4234    1.1761   49.3226 N.ar    1  ZINC001127302705   -0.5300
      9 C9         -2.4645    0.4749   48.7477 C.ar    1  ZINC001127302705    0.1400
     10 C10        -1.1362    0.7868   48.9571 C.ar    1  ZINC001127302705   -0.2000
     11 C11        -0.8111    1.8533   49.7842 C.ar    1  ZINC001127302705   -0.0300
     12 C12        -1.8397    2.5732   50.3684 C.ar    1  ZINC001127302705   -0.1100
     13 Cl13       -1.4917    3.9166   51.4114 Cl      1  ZINC001127302705   -0.0400
     14 N14        -7.5614    2.2876   52.0256 N.am    1  ZINC001127302705   -0.7100
     15 C15        -7.4670    1.1436   52.7320 C.2     1  ZINC001127302705    0.6200
     16 O16        -6.3804    0.7505   53.1101 O.2     1  ZINC001127302705   -0.5200
     17 C17        -8.6836    0.3675   53.0468 C.2     1  ZINC001127302705   -0.0200
     18 N18        -8.7447   -0.7419   53.7560 N.2     1  ZINC001127302705   -0.2500
     19 N19        -9.9604   -1.1500   53.8325 N.pl3   1  ZINC001127302705   -0.2800
     20 C20       -10.3970   -2.3535   54.5446 C.3     1  ZINC001127302705    0.1600
     21 C21       -10.7155   -2.0028   55.9752 C.ar    1  ZINC001127302705   -0.1200
     22 C22       -11.6952   -2.7005   56.6563 C.ar    1  ZINC001127302705   -0.1000
     23 C23       -11.9874   -2.3788   57.9685 C.ar    1  ZINC001127302705   -0.1200
     24 C24       -11.2994   -1.3595   58.5998 C.ar    1  ZINC001127302705   -0.1100
     25 C25       -10.3189   -0.6622   57.9190 C.ar    1  ZINC001127302705   -0.1200
     26 C26       -10.0239   -0.9869   56.6081 C.ar    1  ZINC001127302705   -0.0800
     27 C27       -10.7781   -0.3099   53.1622 C.2     1  ZINC001127302705   -0.0200
     28 C28       -10.0061    0.6770   52.6497 C.2     1  ZINC001127302705   -0.1800
     29 H29        -7.4041    3.1337   54.2264 H       1  ZINC001127302705    0.0500
     30 H30        -6.2009    4.2282   54.9493 H       1  ZINC001127302705    0.0600
     31 H31        -7.2341    4.7972   53.6163 H       1  ZINC001127302705    0.0500
     32 H32        -4.9504    4.2676   52.8085 H       1  ZINC001127302705    0.0900
     33 H33        -5.1203    2.6040   53.4186 H       1  ZINC001127302705    0.0800
     34 H34        -5.8413    4.8841   50.6934 H       1  ZINC001127302705    0.0700
     35 H35        -7.2371    4.0234   50.0011 H       1  ZINC001127302705    0.0500
     36 H36        -7.4137    4.9232   51.5267 H       1  ZINC001127302705    0.0800
     37 H37        -5.2221    1.2539   51.3809 H       1  ZINC001127302705    0.0800
     38 H38        -5.8620    2.0030   49.8985 H       1  ZINC001127302705    0.0700
     39 H39        -2.7224   -0.3539   48.1050 H       1  ZINC001127302705    0.1700
     40 H40        -0.3582    0.2070   48.4829 H       1  ZINC001127302705    0.1500
     41 H41         0.2202    2.1181   49.9646 H       1  ZINC001127302705    0.1500
     42 H42        -8.4284    2.6018   51.7250 H       1  ZINC001127302705    0.4100
     43 H43       -11.2871   -2.7581   54.0628 H       1  ZINC001127302705    0.1000
     44 H44        -9.6012   -3.0980   54.5216 H       1  ZINC001127302705    0.1100
     45 H45       -12.2328   -3.4970   56.1631 H       1  ZINC001127302705    0.1200
     46 H46       -12.7534   -2.9236   58.5005 H       1  ZINC001127302705    0.1300
     47 H47       -11.5281   -1.1076   59.6249 H       1  ZINC001127302705    0.1200
     48 H48        -9.7817    0.1343   58.4121 H       1  ZINC001127302705    0.1300
     49 H49        -9.2580   -0.4422   56.0762 H       1  ZINC001127302705    0.1300
     50 H50       -11.8488   -0.4049   53.0585 H       1  ZINC001127302705    0.1800
     51 H51       -10.3303    1.5191   52.0563 H       1  ZINC001127302705    0.1600
@<TRIPOS>BOND
     1     1     2    1
     2     1    29    1
     3     1    30    1
     4     1    31    1
     5     2     3    1
     6     2    32    1
     7     2    33    1
     8     3     4    1
     9     3     5    1
    10     3    14    1
    11     4    34    1
    12     4    35    1
    13     4    36    1
    14     5     6    1
    15     5    37    1
    16     5    38    1
    17     6     7    1
    18     7    12   ar
    19     7     8   ar
    20     8     9   ar
    21     9    10   ar
    22     9    39    1
    23    10    11   ar
    24    10    40    1
    25    11    12   ar
    26    11    41    1
    27    12    13    1
    28    14    15   am
    29    14    42    1
    30    15    16    2
    31    15    17    1
    32    17    28    1
    33    17    18    2
    34    18    19    1
    35    19    20    1
    36    19    27    1
    37    20    21    1
    38    20    43    1
    39    20    44    1
    40    21    26   ar
    41    21    22   ar
    42    22    23   ar
    43    22    45    1
    44    23    24   ar
    45    23    46    1
    46    24    25   ar
    47    24    47    1
    48    25    26   ar
    49    25    48    1
    50    26    49    1
    51    27    28    2
    52    27    50    1
    53    28    51    1
@<TRIPOS>SUBSTRUCTURE
     1 ZINC001127302705        1 TEMP              0 ****  ****    0 ROOT


##########                                Name:    ZINC000191003171
##########                DOCK_Rotatable_Bonds:                   6
##########                         Heavy_Atoms:                  26
##########                    Molecular_Weight:             389.414
##########                DOCK_Rotatable_Bonds:                   6
##########                       Formal_Charge:          -0.0200002
##########                     HBond_Acceptors:                   8
##########                        HBond_Donors:                   1
##########                         Heavy_Atoms:                  26
##########                          Grid_Score:          -31.503021
##########                     Grid_vdw_energy:          -27.838499
##########                      Grid_es_energy:           -3.664523
##########           Internal_energy_repulsive:           20.592424

@<TRIPOS>MOLECULE
ZINC000191003171
 45 46 1 0 0
SMALL
USER_CHARGES


@<TRIPOS>ATOM
      1 C1        -11.8548   -1.4563   56.1943 C.3     1  ZINC000191003171   -0.1200
      2 C2        -12.5836   -1.6967   57.4914 C.ar    1  ZINC000191003171   -0.0800
      3 C3        -13.7473   -2.4421   57.5022 C.ar    1  ZINC000191003171   -0.0700
      4 C4        -14.4160   -2.6626   58.6922 C.ar    1  ZINC000191003171   -0.1800
      5 C5        -15.6851   -3.4750   58.7040 C.3     1  ZINC000191003171    0.5100
      6 F6        -16.7819   -2.6296   58.5050 F       1  ZINC000191003171   -0.1800
      7 F7        -15.6386   -4.4275   57.6804 F       1  ZINC000191003171   -0.1800
      8 F8        -15.8130   -4.1222   59.9378 F       1  ZINC000191003171   -0.1800
      9 C9        -13.9201   -2.1382   59.8709 C.ar    1  ZINC000191003171   -0.0800
     10 C10       -12.7557   -1.3928   59.8601 C.ar    1  ZINC000191003171   -0.1000
     11 C11       -12.0850   -1.1761   58.6711 C.ar    1  ZINC000191003171   -0.0500
     12 C12       -10.8158   -0.3636   58.6593 C.3     1  ZINC000191003171    0.0900
     13 N13       -10.1089   -0.5410   59.9347 N.3     1  ZINC000191003171   -0.6800
     14 C14        -9.4240    0.6958   60.3336 C.3     1  ZINC000191003171    0.1200
     15 H15       -10.0399    1.5546   60.0666 H       1  ZINC000191003171    0.0600
     16 C16        -8.0783    0.7892   59.6115 C.3     1  ZINC000191003171   -0.1400
     17 C17        -9.1952    0.6855   61.8230 C.ar    1  ZINC000191003171   -0.0100
     18 C18        -8.1861   -0.0904   62.3617 C.ar    1  ZINC000191003171   -0.1300
     19 C19        -7.9750   -0.1009   63.7281 C.ar    1  ZINC000191003171    0.0100
     20 C20        -8.7730    0.6644   64.5568 C.ar    1  ZINC000191003171   -0.7000
     21 S21        -8.5036    0.6508   66.2981 S.o2    1  ZINC000191003171    2.5000
     22 C22        -7.2267    1.9106   66.5685 C.3     1  ZINC000191003171   -0.6500
     23 O23        -9.7443    1.0724   66.8478 O.2     1  ZINC000191003171   -0.9300
     24 O24        -7.9882   -0.6466   66.5629 O.2     1  ZINC000191003171   -0.9300
     25 C25        -9.7839    1.4426   64.0183 C.ar    1  ZINC000191003171    0.1900
     26 F26       -10.5648    2.1914   64.8276 F       1  ZINC000191003171   -0.1200
     27 C27        -9.9910    1.4563   62.6495 C.ar    1  ZINC000191003171   -0.1700
     28 H28       -11.1331   -2.2564   56.0295 H       1  ZINC000191003171    0.0800
     29 H29       -12.5711   -1.4383   55.3729 H       1  ZINC000191003171    0.0800
     30 H30       -11.3330   -0.5005   56.2424 H       1  ZINC000191003171    0.0600
     31 H31       -14.1346   -2.8522   56.5812 H       1  ZINC000191003171    0.1400
     32 H32       -14.4424   -2.3103   60.8003 H       1  ZINC000191003171    0.1400
     33 H33       -12.3684   -0.9828   60.7811 H       1  ZINC000191003171    0.1400
     34 H34       -10.1781   -0.6977   57.8409 H       1  ZINC000191003171    0.0900
     35 H35       -11.0601    0.6899   58.5228 H       1  ZINC000191003171    0.0500
     36 H36       -10.7398   -0.8542   60.6573 H       1  ZINC000191003171    0.3500
     37 H37        -7.5701    1.7070   59.9074 H       1  ZINC000191003171    0.0600
     38 H38        -7.4623   -0.0695   59.8786 H       1  ZINC000191003171    0.0700
     39 H39        -8.2438    0.7967   58.5342 H       1  ZINC000191003171    0.0600
     40 H40        -7.5622   -0.6892   61.7147 H       1  ZINC000191003171    0.1500
     41 H41        -7.1864   -0.7078   64.1479 H       1  ZINC000191003171    0.1600
     42 H42        -7.5906    2.8774   66.2205 H       1  ZINC000191003171    0.1300
     43 H43        -6.9952    1.9709   67.6319 H       1  ZINC000191003171    0.1400
     44 H44        -6.3271    1.6405   66.0155 H       1  ZINC000191003171    0.1300
     45 H45       -10.7789    2.0631   62.2284 H       1  ZINC000191003171    0.1500
@<TRIPOS>BOND
     1     1     2    1
     2     1    28    1
     3     1    29    1
     4     1    30    1
     5     2    11   ar
     6     2     3   ar
     7     3     4   ar
     8     3    31    1
     9     4     5    1
    10     4     9   ar
    11     5     6    1
    12     5     7    1
    13     5     8    1
    14     9    10   ar
    15     9    32    1
    16    10    11   ar
    17    10    33    1
    18    11    12    1
    19    12    13    1
    20    12    34    1
    21    12    35    1
    22    13    14    1
    23    13    36    1
    24    14    15    1
    25    14    16    1
    26    14    17    1
    27    16    37    1
    28    16    38    1
    29    16    39    1
    30    17    27   ar
    31    17    18   ar
    32    18    19   ar
    33    18    40    1
    34    19    20   ar
    35    19    41    1
    36    20    21    1
    37    20    25   ar
    38    21    22    1
    39    21    23    2
    40    21    24    2
    41    22    42    1
    42    22    43    1
    43    22    44    1
    44    25    26    1
    45    25    27   ar
    46    27    45    1
@<TRIPOS>SUBSTRUCTURE
     1 ZINC000191003171        1 TEMP              0 ****  ****    0 ROOT


##########                                Name:    ZINC000623581528
##########                DOCK_Rotatable_Bonds:                   5
##########                         Heavy_Atoms:                  26
##########                    Molecular_Weight:             355.369
##########                DOCK_Rotatable_Bonds:                   5
##########                       Formal_Charge:        -4.47035e-07
##########                     HBond_Acceptors:                   7
##########                        HBond_Donors:                   2
##########                         Heavy_Atoms:                  26
##########                          Grid_Score:          -31.502007
##########                     Grid_vdw_energy:          -30.301142
##########                      Grid_es_energy:           -1.200865
##########           Internal_energy_repulsive:            2.940760

@<TRIPOS>MOLECULE
ZINC000623581528
 44 47 1 0 0
SMALL
USER_CHARGES


@<TRIPOS>ATOM
      1 C1         -1.6480   -0.9911   47.9835 C.3     1  ZINC000623581528    0.1000
      2 N2         -1.0473    0.1188   48.7275 N.am    1  ZINC000623581528   -0.5500
      3 C3          0.2707    0.3600   48.8729 C.2     1  ZINC000623581528    0.6300
      4 O4          1.1645   -0.3166   48.4018 O.2     1  ZINC000623581528   -0.4800
      5 O5          0.4439    1.4629   49.6181 O.3     1  ZINC000623581528   -0.2300
      6 C6         -0.7681    1.9574   49.9701 C.ar    1  ZINC000623581528    0.0400
      7 C7         -1.1596    3.0553   50.7197 C.ar    1  ZINC000623581528   -0.0800
      8 C8         -2.5029    3.3138   50.9134 C.ar    1  ZINC000623581528   -0.0900
      9 C9         -3.4609    2.4810   50.3627 C.ar    1  ZINC000623581528   -0.0900
     10 C10        -4.9236    2.7715   50.5798 C.3     1  ZINC000623581528    0.1800
     11 N11        -5.4268    1.9474   51.6816 N.am    1  ZINC000623581528   -0.7400
     12 C12        -6.5888    2.2663   52.2854 C.2     1  ZINC000623581528    0.7100
     13 O13        -7.2187    3.2388   51.9168 O.2     1  ZINC000623581528   -0.5800
     14 N14        -7.0525    1.5072   53.2979 N.am    1  ZINC000623581528   -0.7300
     15 C15        -8.3165    1.8528   53.9531 C.3     1  ZINC000623581528    0.2000
     16 H16        -9.0175    2.2653   53.2275 H       1  ZINC000623581528    0.1000
     17 C17        -8.0698    2.8631   55.0936 C.3     1  ZINC000623581528   -0.1300
     18 C18        -7.8926    1.9422   56.3195 C.3     1  ZINC000623581528   -0.0800
     19 C19        -8.6664    0.6848   55.9857 C.ar    1  ZINC000623581528   -0.1000
     20 C20        -9.1210   -0.3331   56.8071 C.ar    1  ZINC000623581528   -0.0800
     21 C21        -9.8173   -1.3996   56.2730 C.ar    1  ZINC000623581528   -0.1400
     22 C22       -10.0619   -1.4520   54.9115 C.ar    1  ZINC000623581528    0.0900
     23 F23       -10.7431   -2.4935   54.3859 F       1  ZINC000623581528   -0.1400
     24 C24        -9.6076   -0.4355   54.0898 C.ar    1  ZINC000623581528   -0.1200
     25 C25        -8.9114    0.6329   54.6233 C.ar    1  ZINC000623581528   -0.0900
     26 C26        -3.0802    1.3840   49.6139 C.ar    1  ZINC000623581528   -0.0800
     27 C27        -1.7348    1.1220   49.4098 C.ar    1  ZINC000623581528    0.0700
     28 H28        -1.8036   -0.6917   46.9470 H       1  ZINC000623581528    0.0800
     29 H29        -0.9819   -1.8533   48.0164 H       1  ZINC000623581528    0.0900
     30 H30        -2.6053   -1.2542   48.4334 H       1  ZINC000623581528    0.0900
     31 H31        -0.4155    3.7077   51.1521 H       1  ZINC000623581528    0.1500
     32 H32        -2.8067    4.1697   51.4979 H       1  ZINC000623581528    0.1500
     33 H33        -5.0521    3.8255   50.8263 H       1  ZINC000623581528    0.0800
     34 H34        -5.4787    2.5408   49.6705 H       1  ZINC000623581528    0.0800
     35 H35        -4.9237    1.1723   51.9764 H       1  ZINC000623581528    0.4000
     36 H36        -6.5495    0.7321   53.5928 H       1  ZINC000623581528    0.4000
     37 H37        -7.1646    3.4417   54.9095 H       1  ZINC000623581528    0.0900
     38 H38        -8.9306    3.5191   55.2230 H       1  ZINC000623581528    0.0900
     39 H39        -6.8382    1.7092   56.4682 H       1  ZINC000623581528    0.0800
     40 H40        -8.3055    2.4151   57.2105 H       1  ZINC000623581528    0.0800
     41 H41        -8.9306   -0.2928   57.8694 H       1  ZINC000623581528    0.1300
     42 H42       -10.1703   -2.1916   56.9167 H       1  ZINC000623581528    0.1400
     43 H43        -9.7981   -0.4760   53.0276 H       1  ZINC000623581528    0.1400
     44 H44        -3.8293    0.7351   49.1847 H       1  ZINC000623581528    0.1400
@<TRIPOS>BOND
     1     1     2    1
     2     1    28    1
     3     1    29    1
     4     1    30    1
     5     2    27    1
     6     2     3   am
     7     3     4    2
     8     3     5    1
     9     5     6    1
    10     6    27   ar
    11     6     7   ar
    12     7     8   ar
    13     7    31    1
    14     8     9   ar
    15     8    32    1
    16     9    10    1
    17     9    26   ar
    18    10    11    1
    19    10    33    1
    20    10    34    1
    21    11    12   am
    22    11    35    1
    23    12    13    2
    24    12    14   am
    25    14    15    1
    26    14    36    1
    27    15    16    1
    28    15    25    1
    29    15    17    1
    30    17    18    1
    31    17    37    1
    32    17    38    1
    33    18    19    1
    34    18    39    1
    35    18    40    1
    36    19    25   ar
    37    19    20   ar
    38    20    21   ar
    39    20    41    1
    40    21    22   ar
    41    21    42    1
    42    22    23    1
    43    22    24   ar
    44    24    25   ar
    45    24    43    1
    46    26    27   ar
    47    26    44    1
@<TRIPOS>SUBSTRUCTURE
     1 ZINC000623581528        1 TEMP              0 ****  ****    0 ROOT


##########                                Name:    ZINC000863216249
##########                DOCK_Rotatable_Bonds:                   5
##########                         Heavy_Atoms:                  23
##########                    Molecular_Weight:             396.351
##########                DOCK_Rotatable_Bonds:                   5
##########                       Formal_Charge:         -0.00999944
##########                     HBond_Acceptors:                   5
##########                        HBond_Donors:                   1
##########                         Heavy_Atoms:                  23
##########                          Grid_Score:          -31.489080
##########                     Grid_vdw_energy:          -30.533545
##########                      Grid_es_energy:           -0.955536
##########           Internal_energy_repulsive:           20.306055

@<TRIPOS>MOLECULE
ZINC000863216249
 45 48 1 0 0
SMALL
USER_CHARGES


@<TRIPOS>ATOM
      1 S1        -10.4729   -1.9456   54.5580 S.2     1  ZINC000863216249   -0.5900
      2 C2         -9.4938   -0.8796   55.4723 C.2     1  ZINC000863216249    0.5600
      3 N3         -8.5501   -0.1380   54.8591 N.am    1  ZINC000863216249   -0.6800
      4 C4         -8.3582   -0.2485   53.4109 C.3     1  ZINC000863216249    0.1200
      5 C5         -7.1105    0.5361   53.0005 C.3     1  ZINC000863216249    0.0400
      6 N6         -7.3683    1.2397   51.7370 N.3     1  ZINC000863216249   -0.5300
      7 C7         -6.1671    1.2580   50.8895 C.3     1  ZINC000863216249    0.0000
      8 C8         -6.4959    1.9463   49.5622 C.3     1  ZINC000863216249    0.0600
      9 O9         -6.9943    3.2612   49.8233 O.3     1  ZINC000863216249   -0.3800
     10 C10        -8.1644    3.2805   50.6455 C.3     1  ZINC000863216249    0.0600
     11 C11        -7.8524    2.6057   51.9838 C.3     1  ZINC000863216249    0.0200
     12 N12        -9.6703   -0.7780   56.8047 N.am    1  ZINC000863216249   -0.5100
     13 C13       -10.6614   -1.5306   57.5818 C.3     1  ZINC000863216249    0.1200
     14 C14       -10.4638   -1.0658   59.0280 C.3     1  ZINC000863216249   -0.1100
     15 C15       -11.6405   -0.9055   59.9827 C.3     1  ZINC000863216249   -0.1500
     16 C16       -10.6183   -2.0242   60.2025 C.3     1  ZINC000863216249   -0.1500
     17 C17        -9.3466   -0.0563   58.9700 C.ar    1  ZINC000863216249   -0.0700
     18 C18        -8.7402    0.6930   59.9597 C.ar    1  ZINC000863216249   -0.0800
     19 C19        -7.7166    1.5664   59.6427 C.ar    1  ZINC000863216249   -0.1000
     20 C20        -7.2991    1.6895   58.3295 C.ar    1  ZINC000863216249   -0.0700
     21 Br21       -5.8987    2.8831   57.8933 Br      1  ZINC000863216249   -0.0400
     22 C22        -7.9013    0.9436   57.3374 C.ar    1  ZINC000863216249   -0.0900
     23 C23        -8.9316    0.0560   57.6503 C.ar    1  ZINC000863216249    0.1400
     24 H24        -7.9980    0.4688   55.3767 H       1  ZINC000863216249    0.4000
     25 H25        -8.2336   -1.2969   53.1398 H       1  ZINC000863216249    0.0900
     26 H26        -9.2289    0.1586   52.8969 H       1  ZINC000863216249    0.1000
     27 H27        -6.8657    1.2612   53.7767 H       1  ZINC000863216249    0.0900
     28 H28        -6.2754   -0.1519   52.8694 H       1  ZINC000863216249    0.0400
     29 H29        -5.3724    1.8055   51.3964 H       1  ZINC000863216249    0.0500
     30 H30        -5.8409    0.2357   50.6984 H       1  ZINC000863216249    0.1000
     31 H31        -5.5941    2.0131   48.9537 H       1  ZINC000863216249    0.1000
     32 H32        -7.2525    1.3692   49.0305 H       1  ZINC000863216249    0.0600
     33 H33        -8.4693    4.3123   50.8204 H       1  ZINC000863216249    0.1000
     34 H34        -8.9695    2.7422   50.1454 H       1  ZINC000863216249    0.0600
     35 H35        -8.7565    2.5672   52.5915 H       1  ZINC000863216249    0.0900
     36 H36        -7.0847    3.1748   52.5082 H       1  ZINC000863216249    0.0500
     37 H37       -11.6695   -1.2934   57.2418 H       1  ZINC000863216249    0.0900
     38 H38       -10.4746   -2.6013   57.4989 H       1  ZINC000863216249    0.0900
     39 H39       -11.6188   -0.0610   60.6715 H       1  ZINC000863216249    0.1100
     40 H40       -12.6275   -1.1899   59.6177 H       1  ZINC000863216249    0.1100
     41 H41       -10.9328   -3.0443   59.9820 H       1  ZINC000863216249    0.1100
     42 H42        -9.9242   -1.9154   61.0359 H       1  ZINC000863216249    0.1100
     43 H43        -9.0672    0.5964   60.9844 H       1  ZINC000863216249    0.1400
     44 H44        -7.2444    2.1513   60.4180 H       1  ZINC000863216249    0.1400
     45 H45        -7.5711    1.0444   56.3140 H       1  ZINC000863216249    0.1900
@<TRIPOS>BOND
     1     1     2    2
     2     2     3   am
     3     2    12   am
     4     3     4    1
     5     3    24    1
     6     4     5    1
     7     4    25    1
     8     4    26    1
     9     5     6    1
    10     5    27    1
    11     5    28    1
    12     6    11    1
    13     6     7    1
    14     7     8    1
    15     7    29    1
    16     7    30    1
    17     8     9    1
    18     8    31    1
    19     8    32    1
    20     9    10    1
    21    10    11    1
    22    10    33    1
    23    10    34    1
    24    11    35    1
    25    11    36    1
    26    12    23    1
    27    12    13    1
    28    13    14    1
    29    13    37    1
    30    13    38    1
    31    14    16    1
    32    14    15    1
    33    14    17    1
    34    15    16    1
    35    15    39    1
    36    15    40    1
    37    16    41    1
    38    16    42    1
    39    17    23   ar
    40    17    18   ar
    41    18    19   ar
    42    18    43    1
    43    19    20   ar
    44    19    44    1
    45    20    21    1
    46    20    22   ar
    47    22    23   ar
    48    22    45    1
@<TRIPOS>SUBSTRUCTURE
     1 ZINC000863216249        1 TEMP              0 ****  ****    0 ROOT


##########                                Name:    ZINC000182044395
##########                DOCK_Rotatable_Bonds:                   8
##########                         Heavy_Atoms:                  28
##########                    Molecular_Weight:             398.889
##########                DOCK_Rotatable_Bonds:                   8
##########                       Formal_Charge:          -0.0399999
##########                     HBond_Acceptors:                   6
##########                        HBond_Donors:                   2
##########                         Heavy_Atoms:                  28
##########                          Grid_Score:          -31.483162
##########                     Grid_vdw_energy:          -32.230667
##########                      Grid_es_energy:            0.747505
##########           Internal_energy_repulsive:           15.835922

@<TRIPOS>MOLECULE
ZINC000182044395
 51 53 1 0 0
SMALL
USER_CHARGES


@<TRIPOS>ATOM
      1 C1        -11.2051   -3.7247   57.4249 C.3     1  ZINC000182044395   -0.1800
      2 C2        -11.6838   -2.2751   57.5283 C.3     1  ZINC000182044395    0.0800
      3 N3        -10.5249   -1.3831   57.6150 N.pl3   1  ZINC000182044395   -0.4800
      4 C4        -10.1251   -0.9670   58.8236 C.2     1  ZINC000182044395    0.2500
      5 C5         -9.0440   -0.1268   58.9915 C.2     1  ZINC000182044395   -0.3500
      6 C6         -8.6362    0.3074   60.3369 C.2     1  ZINC000182044395    0.5900
      7 O7         -8.1209   -0.4857   61.1019 O.2     1  ZINC000182044395   -0.5600
      8 N8         -8.8336    1.5839   60.7217 N.am    1  ZINC000182044395   -0.7200
      9 C9         -8.4275    2.0163   62.0613 C.3     1  ZINC000182044395    0.1100
     10 H10        -7.7803    1.2606   62.5064 H       1  ZINC000182044395    0.0900
     11 C11        -7.6702    3.3420   61.9617 C.3     1  ZINC000182044395   -0.1600
     12 C12        -9.6696    2.2028   62.9352 C.3     1  ZINC000182044395    0.1100
     13 H13        -9.5264    3.0613   63.5914 H       1  ZINC000182044395    0.1100
     14 O14       -10.8091    2.4249   62.1021 O.3     1  ZINC000182044395   -0.5500
     15 C15        -9.8922    0.9467   63.7798 C.3     1  ZINC000182044395   -0.1100
     16 C16        -8.9648    0.9691   64.9674 C.ar    1  ZINC000182044395   -0.0800
     17 C17        -9.2445    1.7853   66.0475 C.ar    1  ZINC000182044395   -0.1000
     18 C18        -8.3936    1.8061   67.1367 C.ar    1  ZINC000182044395   -0.1200
     19 C19        -7.2634    1.0102   67.1462 C.ar    1  ZINC000182044395   -0.1200
     20 C20        -6.9811    0.1976   66.0641 C.ar    1  ZINC000182044395   -0.1200
     21 C21        -7.8342    0.1738   64.9765 C.ar    1  ZINC000182044395   -0.1200
     22 C22        -8.3091    0.3328   57.8026 C.2     1  ZINC000182044395    0.4400
     23 O23        -7.3508    1.0796   57.8976 O.2     1  ZINC000182044395   -0.4900
     24 C24        -8.7781   -0.1528   56.4913 C.ar    1  ZINC000182044395   -0.1800
     25 C25        -8.1393    0.2263   55.3110 C.ar    1  ZINC000182044395   -0.0200
     26 C26        -8.6086   -0.2417   54.1022 C.ar    1  ZINC000182044395   -0.0700
     27 Cl27       -7.8191    0.2263   52.6286 Cl      1  ZINC000182044395   -0.0500
     28 C28        -9.7099   -1.0862   54.0586 C.ar    1  ZINC000182044395   -0.0500
     29 C29       -10.3495   -1.4687   55.2173 C.ar    1  ZINC000182044395   -0.1600
     30 C30        -9.8928   -1.0076   56.4491 C.ar    1  ZINC000182044395    0.1900
     31 H31       -10.6174   -3.9770   58.3076 H       1  ZINC000182044395    0.0700
     32 H32       -12.0674   -4.3884   57.3605 H       1  ZINC000182044395    0.0800
     33 H33       -10.5895   -3.8412   56.5331 H       1  ZINC000182044395    0.0700
     34 H34       -12.2995   -2.1586   58.4203 H       1  ZINC000182044395    0.1000
     35 H35       -12.2714   -2.0228   56.6457 H       1  ZINC000182044395    0.1100
     36 H36       -10.6672   -1.3006   59.6962 H       1  ZINC000182044395    0.1800
     37 H37        -9.2444    2.2164   60.1116 H       1  ZINC000182044395    0.4100
     38 H38        -6.7855    3.2090   61.3391 H       1  ZINC000182044395    0.0600
     39 H39        -8.3175    4.0976   61.5167 H       1  ZINC000182044395    0.0600
     40 H40        -7.3682    3.6636   62.9584 H       1  ZINC000182044395    0.0600
     41 H41       -10.7382    3.2079   61.5391 H       1  ZINC000182044395    0.3700
     42 H42        -9.6885    0.0622   63.1763 H       1  ZINC000182044395    0.0800
     43 H43       -10.9254    0.9202   64.1261 H       1  ZINC000182044395    0.0800
     44 H44       -10.1276    2.4068   66.0402 H       1  ZINC000182044395    0.1200
     45 H45        -8.6119    2.4441   67.9803 H       1  ZINC000182044395    0.1200
     46 H46        -6.5986    1.0264   67.9972 H       1  ZINC000182044395    0.1200
     47 H47        -6.0958   -0.4209   66.0696 H       1  ZINC000182044395    0.1200
     48 H48        -7.6155   -0.4636   64.1326 H       1  ZINC000182044395    0.1200
     49 H49        -7.2822    0.8826   55.3438 H       1  ZINC000182044395    0.1500
     50 H50       -10.0687   -1.4475   53.1061 H       1  ZINC000182044395    0.1500
     51 H51       -11.2049   -2.1263   55.1701 H       1  ZINC000182044395    0.1500
@<TRIPOS>BOND
     1     1     2    1
     2     1    31    1
     3     1    32    1
     4     1    33    1
     5     2     3    1
     6     2    34    1
     7     2    35    1
     8     3    30    1
     9     3     4    1
    10     4     5    2
    11     4    36    1
    12     5     6    1
    13     5    22    1
    14     6     7    2
    15     6     8   am
    16     8     9    1
    17     8    37    1
    18     9    10    1
    19     9    11    1
    20     9    12    1
    21    11    38    1
    22    11    39    1
    23    11    40    1
    24    12    13    1
    25    12    14    1
    26    12    15    1
    27    14    41    1
    28    15    16    1
    29    15    42    1
    30    15    43    1
    31    16    21   ar
    32    16    17   ar
    33    17    18   ar
    34    17    44    1
    35    18    19   ar
    36    18    45    1
    37    19    20   ar
    38    19    46    1
    39    20    21   ar
    40    20    47    1
    41    21    48    1
    42    22    23    2
    43    22    24    1
    44    24    30   ar
    45    24    25   ar
    46    25    26   ar
    47    25    49    1
    48    26    27    1
    49    26    28   ar
    50    28    29   ar
    51    28    50    1
    52    29    30   ar
    53    29    51    1
@<TRIPOS>SUBSTRUCTURE
     1 ZINC000182044395        1 TEMP              0 ****  ****    0 ROOT


##########                                Name:    ZINC000467185792
##########                DOCK_Rotatable_Bonds:                   9
##########                         Heavy_Atoms:                  29
##########                    Molecular_Weight:             412.513
##########                DOCK_Rotatable_Bonds:                   9
##########                       Formal_Charge:                0.04
##########                     HBond_Acceptors:                   8
##########                        HBond_Donors:                   2
##########                         Heavy_Atoms:                  29
##########                          Grid_Score:          -31.469448
##########                     Grid_vdw_energy:          -28.892664
##########                      Grid_es_energy:           -2.576785
##########           Internal_energy_repulsive:           22.454821

@<TRIPOS>MOLECULE
ZINC000467185792
 53 55 1 0 0
SMALL
USER_CHARGES


@<TRIPOS>ATOM
      1 C1         -8.1174    1.3930   67.8715 C.3     1  ZINC000467185792   -0.1500
      2 C2         -8.3761    0.4079   66.7298 C.3     1  ZINC000467185792   -0.1200
      3 C3         -8.3296    1.1522   65.3938 C.3     1  ZINC000467185792    0.0600
      4 O4         -8.5718    0.2323   64.3274 O.3     1  ZINC000467185792   -0.3100
      5 C5         -8.5647    0.7354   63.0648 C.ar    1  ZINC000467185792    0.1400
      6 C6         -8.4139   -0.1178   61.9803 C.ar    1  ZINC000467185792   -0.2100
      7 C7         -8.4068    0.3895   60.6977 C.ar    1  ZINC000467185792   -0.0400
      8 C8         -8.5514    1.7605   60.4912 C.ar    1  ZINC000467185792   -0.0600
      9 C9         -8.5447    2.3094   59.1131 C.2     1  ZINC000467185792    0.1400
     10 C10        -9.2467    3.4048   58.7723 C.2     1  ZINC000467185792   -0.3000
     11 S11        -8.9725    3.7247   57.0613 S.3     1  ZINC000467185792    0.2000
     12 C12        -7.9145    2.3199   56.9677 C.2     1  ZINC000467185792    0.2800
     13 N13        -7.2564    1.8858   55.8251 N.am    1  ZINC000467185792   -0.6100
     14 C14        -7.8731    1.9459   54.6282 C.2     1  ZINC000467185792    0.5900
     15 O15        -9.0062    2.3806   54.5492 O.2     1  ZINC000467185792   -0.4900
     16 C16        -7.1745    1.4850   53.4155 C.2     1  ZINC000467185792   -0.2400
     17 C17        -6.2127    2.2755   52.7894 C.2     1  ZINC000467185792    0.0800
     18 C18        -5.8515    3.6339   53.3327 C.3     1  ZINC000467185792   -0.1200
     19 C19        -6.7313    4.6976   52.6728 C.3     1  ZINC000467185792   -0.1400
     20 C20        -5.5916    1.7698   51.6409 C.2     1  ZINC000467185792    0.0600
     21 C21        -4.5455    2.5927   50.9340 C.3     1  ZINC000467185792   -0.0600
     22 C22        -3.9968    1.8053   49.7424 C.3     1  ZINC000467185792   -0.1500
     23 N23        -5.9102    0.5919   51.1773 N.2     1  ZINC000467185792   -0.1800
     24 N24        -6.7902   -0.1609   51.7285 N.am    1  ZINC000467185792   -0.4300
     25 C25        -7.4514    0.2124   52.8408 C.2     1  ZINC000467185792    0.5000
     26 O26        -8.2829   -0.5245   53.3424 O.2     1  ZINC000467185792   -0.5300
     27 N27        -7.8420    1.7573   58.1341 N.2     1  ZINC000467185792   -0.5000
     28 C28        -8.7026    2.6146   61.5825 C.ar    1  ZINC000467185792   -0.0600
     29 C29        -8.7142    2.1004   62.8623 C.ar    1  ZINC000467185792   -0.1500
     30 H30        -8.8820    2.1698   67.8614 H       1  ZINC000467185792    0.0600
     31 H31        -8.1507    0.8629   68.8233 H       1  ZINC000467185792    0.0700
     32 H32        -7.1354    1.8482   67.7432 H       1  ZINC000467185792    0.0600
     33 H33        -7.6115   -0.3688   66.7397 H       1  ZINC000467185792    0.0700
     34 H34        -9.3582   -0.0472   66.8581 H       1  ZINC000467185792    0.0700
     35 H35        -9.0939    1.9293   65.3838 H       1  ZINC000467185792    0.0600
     36 H36        -7.3474    1.6070   65.2652 H       1  ZINC000467185792    0.0600
     37 H37        -8.3016   -1.1798   62.1409 H       1  ZINC000467185792    0.1300
     38 H38        -8.2891   -0.2748   59.8542 H       1  ZINC000467185792    0.1300
     39 H39        -9.8711    3.9877   59.4332 H       1  ZINC000467185792    0.1800
     40 H40        -6.3526    1.5391   55.8881 H       1  ZINC000467185792    0.4400
     41 H41        -6.0111    3.6482   54.4109 H       1  ZINC000467185792    0.0900
     42 H42        -4.8038    3.8445   53.1176 H       1  ZINC000467185792    0.1300
     43 H43        -6.5717    4.6833   51.5946 H       1  ZINC000467185792    0.0600
     44 H44        -7.7789    4.4871   52.8879 H       1  ZINC000467185792    0.0600
     45 H45        -6.4700    5.6802   53.0658 H       1  ZINC000467185792    0.0700
     46 H46        -4.9921    3.5222   50.5807 H       1  ZINC000467185792    0.1000
     47 H47        -3.7334    2.8192   51.6248 H       1  ZINC000467185792    0.1000
     48 H48        -3.2402    2.4005   49.2311 H       1  ZINC000467185792    0.0600
     49 H49        -3.5503    0.8759   50.0956 H       1  ZINC000467185792    0.0600
     50 H50        -4.8089    1.5788   49.0516 H       1  ZINC000467185792    0.0600
     51 H51        -6.9822   -1.0265   51.3349 H       1  ZINC000467185792    0.4500
     52 H52        -8.8145    3.6773   61.4258 H       1  ZINC000467185792    0.1300
     53 H53        -8.8317    2.7615   63.7081 H       1  ZINC000467185792    0.1400
@<TRIPOS>BOND
     1     1     2    1
     2     1    30    1
     3     1    31    1
     4     1    32    1
     5     2     3    1
     6     2    33    1
     7     2    34    1
     8     3     4    1
     9     3    35    1
    10     3    36    1
    11     4     5    1
    12     5    29   ar
    13     5     6   ar
    14     6     7   ar
    15     6    37    1
    16     7     8   ar
    17     7    38    1
    18     8     9    1
    19     8    28   ar
    20     9    27    1
    21     9    10    2
    22    10    11    1
    23    10    39    1
    24    11    12    1
    25    12    13    1
    26    12    27    2
    27    13    14   am
    28    13    40    1
    29    14    15    2
    30    14    16    1
    31    16    25    1
    32    16    17    2
    33    17    18    1
    34    17    20    1
    35    18    19    1
    36    18    41    1
    37    18    42    1
    38    19    43    1
    39    19    44    1
    40    19    45    1
    41    20    21    1
    42    20    23    2
    43    21    22    1
    44    21    46    1
    45    21    47    1
    46    22    48    1
    47    22    49    1
    48    22    50    1
    49    23    24    1
    50    24    25   am
    51    24    51    1
    52    25    26    2
    53    28    29   ar
    54    28    52    1
    55    29    53    1
@<TRIPOS>SUBSTRUCTURE
     1 ZINC000467185792        1 TEMP              0 ****  ****    0 ROOT


##########                                Name:    ZINC000047262406
##########                DOCK_Rotatable_Bonds:                   6
##########                         Heavy_Atoms:                  28
##########                    Molecular_Weight:             417.919
##########                DOCK_Rotatable_Bonds:                   6
##########                       Formal_Charge:          -0.0100002
##########                     HBond_Acceptors:                   9
##########                        HBond_Donors:                   1
##########                         Heavy_Atoms:                  28
##########                          Grid_Score:          -31.449976
##########                     Grid_vdw_energy:          -31.437662
##########                      Grid_es_energy:           -0.012314
##########           Internal_energy_repulsive:           15.322253

@<TRIPOS>MOLECULE
ZINC000047262406
 48 51 1 0 0
SMALL
USER_CHARGES


@<TRIPOS>ATOM
      1 C1         -9.9477    3.6871   53.4259 C.3     1  ZINC000047262406   -0.1500
      2 C2         -9.7654    2.6434   52.3220 C.3     1  ZINC000047262406    0.1800
      3 H3        -10.4433    2.8646   51.4975 H       1  ZINC000047262406    0.0800
      4 C4        -10.0714    1.2736   52.8703 C.2     1  ZINC000047262406    0.1700
      5 N5        -10.4295    0.2300   52.1767 N.2     1  ZINC000047262406   -0.2500
      6 N6        -10.6096   -0.7708   52.9648 N.2     1  ZINC000047262406   -0.2700
      7 C7        -10.3698   -0.3960   54.2026 C.2     1  ZINC000047262406    0.2400
      8 C8        -10.4608   -1.2399   55.4034 C.2     1  ZINC000047262406   -0.1500
      9 C9        -10.7706   -2.5657   55.4125 C.2     1  ZINC000047262406   -0.0600
     10 C10       -10.7931   -3.1373   56.6655 C.2     1  ZINC000047262406   -0.1400
     11 C11       -10.5092   -2.3075   57.6747 C.2     1  ZINC000047262406   -0.1900
     12 S12       -10.1793   -0.6965   57.0524 S.3     1  ZINC000047262406    0.1700
     13 O13       -10.0185    0.9060   54.1636 O.3     1  ZINC000047262406   -0.2200
     14 N14        -8.3786    2.6789   51.8388 N.3     1  ZINC000047262406   -0.5200
     15 C15        -8.3239    2.4967   50.3827 C.3     1  ZINC000047262406    0.0500
     16 C16        -6.8846    2.6838   49.8976 C.3     1  ZINC000047262406   -0.1000
     17 C17        -5.9799    1.6626   50.5929 C.3     1  ZINC000047262406   -0.1100
     18 C18        -4.5517    1.8810   50.1645 C.2     1  ZINC000047262406    0.5100
     19 O19        -4.1514    3.0031   49.9378 O.2     1  ZINC000047262406   -0.4600
     20 N20        -3.7192    0.8292   50.0333 N.am    1  ZINC000047262406   -0.6600
     21 C21        -2.3975    1.0313   49.6368 C.ar    1  ZINC000047262406    0.3600
     22 C22        -1.8127    0.1626   48.7230 C.ar    1  ZINC000047262406   -0.2000
     23 C23        -0.5005    0.3743   48.3373 C.ar    1  ZINC000047262406   -0.0400
     24 C24         0.1842    1.4528   48.8820 C.ar    1  ZINC000047262406   -0.1200
     25 Cl25        1.8318    1.7640   48.4319 Cl      1  ZINC000047262406   -0.0500
     26 C26        -0.4605    2.2762   49.7860 C.ar    1  ZINC000047262406    0.1500
     27 N27        -1.7138    2.0516   50.1303 N.ar    1  ZINC000047262406   -0.4600
     28 C28        -6.0924    1.8420   52.1094 C.3     1  ZINC000047262406   -0.1100
     29 C29        -7.5547    1.6793   52.5303 C.3     1  ZINC000047262406    0.0600
     30 H30        -9.7263    4.6779   53.0293 H       1  ZINC000047262406    0.0800
     31 H31       -10.9767    3.6608   53.7845 H       1  ZINC000047262406    0.0700
     32 H32        -9.2698    3.4660   54.2504 H       1  ZINC000047262406    0.0800
     33 H33       -10.9813   -3.1230   54.5117 H       1  ZINC000047262406    0.1600
     34 H34       -11.0240   -4.1807   56.8216 H       1  ZINC000047262406    0.1600
     35 H35       -10.4824   -2.5865   58.7177 H       1  ZINC000047262406    0.1800
     36 H36        -8.6649    1.4928   50.1292 H       1  ZINC000047262406    0.0400
     37 H37        -8.9682    3.2315   49.9002 H       1  ZINC000047262406    0.0900
     38 H38        -6.8416    2.5330   48.8189 H       1  ZINC000047262406    0.0800
     39 H39        -6.5475    3.6920   50.1385 H       1  ZINC000047262406    0.0900
     40 H40        -6.2919    0.6545   50.3203 H       1  ZINC000047262406    0.1000
     41 H41        -4.0394   -0.0683   50.2146 H       1  ZINC000047262406    0.4200
     42 H42        -2.3746   -0.6667   48.3195 H       1  ZINC000047262406    0.1500
     43 H43        -0.0198   -0.2845   47.6293 H       1  ZINC000047262406    0.1500
     44 H44         0.0675    3.1161   50.2129 H       1  ZINC000047262406    0.1700
     45 H45        -5.4835    1.0899   52.6110 H       1  ZINC000047262406    0.0700
     46 H46        -5.7430    2.8371   52.3851 H       1  ZINC000047262406    0.0800
     47 H47        -7.6403    1.8206   53.6078 H       1  ZINC000047262406    0.0700
     48 H48        -7.8994    0.6793   52.2668 H       1  ZINC000047262406    0.0400
@<TRIPOS>BOND
     1     1     2    1
     2     1    30    1
     3     1    31    1
     4     1    32    1
     5     2     3    1
     6     2     4    1
     7     2    14    1
     8     4    13    1
     9     4     5    2
    10     5     6    1
    11     6     7    2
    12     7     8    1
    13     7    13    1
    14     8    12    1
    15     8     9    2
    16     9    10    1
    17     9    33    1
    18    10    11    2
    19    10    34    1
    20    11    12    1
    21    11    35    1
    22    14    29    1
    23    14    15    1
    24    15    16    1
    25    15    36    1
    26    15    37    1
    27    16    17    1
    28    16    38    1
    29    16    39    1
    30    17    18    1
    31    17    28    1
    32    17    40    1
    33    18    19    2
    34    18    20   am
    35    20    21    1
    36    20    41    1
    37    21    27   ar
    38    21    22   ar
    39    22    23   ar
    40    22    42    1
    41    23    24   ar
    42    23    43    1
    43    24    25    1
    44    24    26   ar
    45    26    27   ar
    46    26    44    1
    47    28    29    1
    48    28    45    1
    49    28    46    1
    50    29    47    1
    51    29    48    1
@<TRIPOS>SUBSTRUCTURE
     1 ZINC000047262406        1 TEMP              0 ****  ****    0 ROOT


##########                                Name:    ZINC000948289723
##########                DOCK_Rotatable_Bonds:                   6
##########                         Heavy_Atoms:                  24
##########                    Molecular_Weight:             331.415
##########                DOCK_Rotatable_Bonds:                   6
##########                       Formal_Charge:           0.0599999
##########                     HBond_Acceptors:                   6
##########                        HBond_Donors:                   1
##########                         Heavy_Atoms:                  24
##########                          Grid_Score:          -31.438475
##########                     Grid_vdw_energy:          -31.299482
##########                      Grid_es_energy:           -0.138992
##########           Internal_energy_repulsive:            7.677314

@<TRIPOS>MOLECULE
ZINC000948289723
 49 52 1 0 0
SMALL
USER_CHARGES


@<TRIPOS>ATOM
      1 C1         -6.7274    1.3615   52.2300 C.3     1  ZINC000948289723   -0.1400
      2 C2         -7.8764    1.6640   53.1940 C.3     1  ZINC000948289723   -0.1100
      3 C3         -9.1715    0.9020   52.8673 C.3     1  ZINC000948289723   -0.1100
      4 C4         -9.3453    0.7056   54.3826 C.3     1  ZINC000948289723   -0.1400
      5 C5         -9.8531   -0.6623   54.7596 C.2     1  ZINC000948289723    0.5400
      6 O6        -10.1449   -1.4606   53.8945 O.2     1  ZINC000948289723   -0.5300
      7 N7         -9.9829   -0.9985   56.0583 N.am    1  ZINC000948289723   -0.6200
      8 C8        -10.4639   -2.2923   56.5645 C.3     1  ZINC000948289723    0.1100
      9 C9        -10.4164   -2.2277   58.1056 C.3     1  ZINC000948289723   -0.1100
     10 H10       -11.3912   -1.9560   58.5105 H       1  ZINC000948289723    0.1000
     11 C11        -9.9425   -3.5603   58.6891 C.3     1  ZINC000948289723   -0.1400
     12 C12        -9.3783   -1.1062   58.3746 C.3     1  ZINC000948289723    0.1400
     13 H13        -8.3612   -1.4938   58.3187 H       1  ZINC000948289723    0.1200
     14 N14        -9.6223   -0.4642   59.6686 N.am    1  ZINC000948289723   -0.7100
     15 C15        -8.7119   -0.5715   60.6564 C.2     1  ZINC000948289723    0.6100
     16 O16        -7.6873   -1.1998   60.4732 O.2     1  ZINC000948289723   -0.5000
     17 C17        -8.9583    0.0735   61.9600 C.2     1  ZINC000948289723   -0.0900
     18 C18        -8.0737    0.1980   62.9963 C.2     1  ZINC000948289723   -0.1400
     19 C19        -8.8088    0.8852   63.9876 C.2     1  ZINC000948289723    0.0500
     20 C20        -8.3179    1.2921   65.3531 C.3     1  ZINC000948289723   -0.0900
     21 C21        -8.5422    0.3111   66.5056 C.3     1  ZINC000948289723   -0.1600
     22 C22        -7.1360    0.5168   65.9389 C.3     1  ZINC000948289723   -0.1600
     23 N23        -9.9926    1.0987   63.4913 N.2     1  ZINC000948289723   -0.3300
     24 O24       -10.0975    0.6638   62.3682 O.3     1  ZINC000948289723    0.1200
     25 C25        -9.6603   -0.1319   57.2065 C.3     1  ZINC000948289723    0.0900
     26 C26        -7.8185    0.8489   54.4967 C.3     1  ZINC000948289723   -0.1200
     27 H27        -6.7518    0.3069   51.9552 H       1  ZINC000948289723    0.0600
     28 H28        -6.8342    1.9730   51.3341 H       1  ZINC000948289723    0.0600
     29 H29        -5.7776    1.5889   52.7140 H       1  ZINC000948289723    0.0600
     30 H30        -8.0250    2.7321   53.3535 H       1  ZINC000948289723    0.0900
     31 H31        -9.9433    1.5259   52.4165 H       1  ZINC000948289723    0.0700
     32 H32        -9.0056   -0.0275   52.3226 H       1  ZINC000948289723    0.1000
     33 H33        -9.8982    1.5106   54.8666 H       1  ZINC000948289723    0.1100
     34 H34       -11.4878   -2.4631   56.2320 H       1  ZINC000948289723    0.0800
     35 H35        -9.8173   -3.0938   56.2070 H       1  ZINC000948289723    0.0800
     36 H36        -8.9546   -3.7986   58.2951 H       1  ZINC000948289723    0.0600
     37 H37        -9.8919   -3.4840   59.7752 H       1  ZINC000948289723    0.0600
     38 H38       -10.6435   -4.3478   58.4124 H       1  ZINC000948289723    0.0700
     39 H39       -10.4393    0.0382   59.8143 H       1  ZINC000948289723    0.4100
     40 H40        -7.0520   -0.1487   63.0451 H       1  ZINC000948289723    0.1800
     41 H41        -8.3826    2.3566   65.5781 H       1  ZINC000948289723    0.1300
     42 H42        -8.7547    0.7302   67.4892 H       1  ZINC000948289723    0.1100
     43 H43        -9.0448   -0.6285   66.2762 H       1  ZINC000948289723    0.1000
     44 H44        -6.7136   -0.2874   65.3365 H       1  ZINC000948289723    0.1000
     45 H45        -6.4234    1.0712   66.5495 H       1  ZINC000948289723    0.1100
     46 H46        -8.7777    0.4716   56.9945 H       1  ZINC000948289723    0.0900
     47 H47       -10.5105    0.5077   57.4430 H       1  ZINC000948289723    0.0800
     48 H48        -7.2826   -0.0951   54.3976 H       1  ZINC000948289723    0.0900
     49 H49        -7.4979    1.4299   55.3614 H       1  ZINC000948289723    0.0800
@<TRIPOS>BOND
     1     1     2    1
     2     1    27    1
     3     1    28    1
     4     1    29    1
     5     2    26    1
     6     2     3    1
     7     2    30    1
     8     3     4    1
     9     3    31    1
    10     3    32    1
    11     4     5    1
    12     4    26    1
    13     4    33    1
    14     5     6    2
    15     5     7   am
    16     7    25    1
    17     7     8    1
    18     8     9    1
    19     8    34    1
    20     8    35    1
    21     9    10    1
    22     9    11    1
    23     9    12    1
    24    11    36    1
    25    11    37    1
    26    11    38    1
    27    12    13    1
    28    12    14    1
    29    12    25    1
    30    14    15   am
    31    14    39    1
    32    15    16    2
    33    15    17    1
    34    17    24    1
    35    17    18    2
    36    18    19    1
    37    18    40    1
    38    19    20    1
    39    19    23    2
    40    20    22    1
    41    20    21    1
    42    20    41    1
    43    21    22    1
    44    21    42    1
    45    21    43    1
    46    22    44    1
    47    22    45    1
    48    23    24    1
    49    25    46    1
    50    25    47    1
    51    26    48    1
    52    26    49    1
@<TRIPOS>SUBSTRUCTURE
     1 ZINC000948289723        1 TEMP              0 ****  ****    0 ROOT


##########                                Name:    ZINC000281257088
##########                DOCK_Rotatable_Bonds:                   8
##########                         Heavy_Atoms:                  27
##########                    Molecular_Weight:             395.541
##########                DOCK_Rotatable_Bonds:                   8
##########                       Formal_Charge:          -0.0200005
##########                     HBond_Acceptors:                   7
##########                        HBond_Donors:                   1
##########                         Heavy_Atoms:                  27
##########                          Grid_Score:          -31.432529
##########                     Grid_vdw_energy:          -26.304821
##########                      Grid_es_energy:           -5.127708
##########           Internal_energy_repulsive:           23.127275

@<TRIPOS>MOLECULE
ZINC000281257088
 57 58 1 0 0
SMALL
USER_CHARGES


@<TRIPOS>ATOM
      1 C1         -8.6204   -1.1271   59.4790 C.3     1  ZINC000281257088   -0.0700
      2 C2         -9.0294   -0.2297   60.6184 C.2     1  ZINC000281257088    0.1000
      3 N3         -8.3472   -0.0235   61.7156 N.2     1  ZINC000281257088   -0.3000
      4 N4         -9.0669    0.8723   62.5167 N.pl3   1  ZINC000281257088   -0.3700
      5 C5         -8.6591    1.3709   63.8325 C.3     1  ZINC000281257088    0.1500
      6 C6         -8.0751    0.2208   64.6552 C.3     1  ZINC000281257088   -0.6400
      7 S7         -8.1831    0.6242   66.4205 S.o2    1  ZINC000281257088    2.4300
      8 C8         -7.0608    2.0434   66.5499 C.3     1  ZINC000281257088   -0.6500
      9 O9         -9.5041    1.0643   66.7043 O.2     1  ZINC000281257088   -0.9300
     10 O10        -7.6361   -0.4549   67.1658 O.2     1  ZINC000281257088   -0.9300
     11 C11       -10.2021    1.1949   61.8623 C.2     1  ZINC000281257088    0.0900
     12 C12       -11.2756    2.1314   62.3540 C.3     1  ZINC000281257088   -0.1000
     13 C13       -10.2012    0.5314   60.6830 C.2     1  ZINC000281257088   -0.2300
     14 C14       -11.2768    0.5943   59.6294 C.3     1  ZINC000281257088    0.1400
     15 N15       -12.1809   -0.5532   59.7834 N.3     1  ZINC000281257088   -0.6700
     16 C16       -13.4371   -0.3354   59.0538 C.3     1  ZINC000281257088    0.1400
     17 H17       -13.2284    0.1820   58.1174 H       1  ZINC000281257088    0.0500
     18 C18       -14.3672    0.5018   59.8936 C.ar    1  ZINC000281257088   -0.0800
     19 C19       -14.3799    0.3523   61.2679 C.ar    1  ZINC000281257088   -0.0600
     20 C20       -15.2324    1.1195   62.0392 C.ar    1  ZINC000281257088   -0.1600
     21 C21       -16.0735    2.0383   61.4349 C.ar    1  ZINC000281257088    0.1000
     22 F22       -16.9069    2.7892   62.1878 F       1  ZINC000281257088   -0.1400
     23 C23       -16.0596    2.1875   60.0585 C.ar    1  ZINC000281257088   -0.1600
     24 C24       -15.2029    1.4227   59.2898 C.ar    1  ZINC000281257088   -0.0900
     25 C25       -14.0943   -1.6845   58.7558 C.3     1  ZINC000281257088   -0.0600
     26 C26       -14.0737   -2.5515   60.0162 C.3     1  ZINC000281257088   -0.1400
     27 C27       -15.5422   -1.4601   58.3147 C.3     1  ZINC000281257088   -0.1400
     28 C28       -13.3244   -2.3910   57.6382 C.3     1  ZINC000281257088   -0.1500
     29 H29        -8.0348   -0.5559   58.7587 H       1  ZINC000281257088    0.0800
     30 H30        -8.0198   -1.9516   59.8633 H       1  ZINC000281257088    0.0700
     31 H31        -9.5109   -1.5232   58.9907 H       1  ZINC000281257088    0.0800
     32 H32        -7.9053    2.1485   63.7088 H       1  ZINC000281257088    0.1100
     33 H33        -9.5256    1.7838   64.3491 H       1  ZINC000281257088    0.1100
     34 H34        -8.6381   -0.6910   64.4558 H       1  ZINC000281257088    0.1400
     35 H35        -7.0311    0.0706   64.3800 H       1  ZINC000281257088    0.1400
     36 H36        -7.4157    2.8472   65.9049 H       1  ZINC000281257088    0.1300
     37 H37        -7.0328    2.3915   67.5825 H       1  ZINC000281257088    0.1300
     38 H38        -6.0595    1.7443   66.2400 H       1  ZINC000281257088    0.1300
     39 H39       -11.0516    3.1460   62.0246 H       1  ZINC000281257088    0.0800
     40 H40       -12.2398    1.8229   61.9501 H       1  ZINC000281257088    0.0900
     41 H41       -11.3118    2.1027   63.4431 H       1  ZINC000281257088    0.0700
     42 H42       -11.8419    1.5197   59.7420 H       1  ZINC000281257088    0.0800
     43 H43       -10.8191    0.5662   58.6406 H       1  ZINC000281257088    0.0300
     44 H44       -11.7341   -1.4079   59.4869 H       1  ZINC000281257088    0.3400
     45 H45       -13.7236   -0.3645   61.7390 H       1  ZINC000281257088    0.1400
     46 H46       -15.2426    1.0020   63.1127 H       1  ZINC000281257088    0.1300
     47 H47       -16.7155    2.9037   59.5861 H       1  ZINC000281257088    0.1300
     48 H48       -15.1915    1.5391   58.2160 H       1  ZINC000281257088    0.1300
     49 H49       -14.6222   -2.0482   60.8124 H       1  ZINC000281257088    0.0600
     50 H50       -14.5419   -3.5126   59.8039 H       1  ZINC000281257088    0.0500
     51 H51       -13.0423   -2.7112   60.3304 H       1  ZINC000281257088    0.0600
     52 H52       -15.5568   -0.8425   57.4167 H       1  ZINC000281257088    0.0500
     53 H53       -16.0103   -2.4213   58.1023 H       1  ZINC000281257088    0.0600
     54 H54       -16.0906   -0.9568   59.1109 H       1  ZINC000281257088    0.0600
     55 H55       -12.3155   -2.6204   57.9809 H       1  ZINC000281257088    0.0500
     56 H56       -13.8369   -3.3155   57.3721 H       1  ZINC000281257088    0.0600
     57 H57       -13.2723   -1.7402   56.7653 H       1  ZINC000281257088    0.0600
@<TRIPOS>BOND
     1     1     2    1
     2     1    29    1
     3     1    30    1
     4     1    31    1
     5     2    13    1
     6     2     3    2
     7     3     4    1
     8     4     5    1
     9     4    11    1
    10     5     6    1
    11     5    32    1
    12     5    33    1
    13     6     7    1
    14     6    34    1
    15     6    35    1
    16     7     8    1
    17     7     9    2
    18     7    10    2
    19     8    36    1
    20     8    37    1
    21     8    38    1
    22    11    12    1
    23    11    13    2
    24    12    39    1
    25    12    40    1
    26    12    41    1
    27    13    14    1
    28    14    15    1
    29    14    42    1
    30    14    43    1
    31    15    16    1
    32    15    44    1
    33    16    17    1
    34    16    18    1
    35    16    25    1
    36    18    24   ar
    37    18    19   ar
    38    19    20   ar
    39    19    45    1
    40    20    21   ar
    41    20    46    1
    42    21    22    1
    43    21    23   ar
    44    23    24   ar
    45    23    47    1
    46    24    48    1
    47    25    26    1
    48    25    27    1
    49    25    28    1
    50    26    49    1
    51    26    50    1
    52    26    51    1
    53    27    52    1
    54    27    53    1
    55    27    54    1
    56    28    55    1
    57    28    56    1
    58    28    57    1
@<TRIPOS>SUBSTRUCTURE
     1 ZINC000281257088        1 TEMP              0 ****  ****    0 ROOT


##########                                Name:    ZINC000550952205
##########                DOCK_Rotatable_Bonds:                   7
##########                         Heavy_Atoms:                  28
##########                    Molecular_Weight:             407.484
##########                DOCK_Rotatable_Bonds:                   7
##########                       Formal_Charge:        -2.68221e-07
##########                     HBond_Acceptors:                   8
##########                        HBond_Donors:                   2
##########                         Heavy_Atoms:                  28
##########                          Grid_Score:          -31.425945
##########                     Grid_vdw_energy:          -31.089537
##########                      Grid_es_energy:           -0.336408
##########           Internal_energy_repulsive:            4.540251

@<TRIPOS>MOLECULE
ZINC000550952205
 51 54 1 0 0
SMALL
USER_CHARGES


@<TRIPOS>ATOM
      1 O1         -9.9160   -2.8126   55.8751 O.2     1  ZINC000550952205   -0.5100
      2 C2         -9.7855   -1.6862   56.3077 C.2     1  ZINC000550952205    0.5100
      3 N3         -9.5405   -0.6644   55.4637 N.am    1  ZINC000550952205   -0.7000
      4 C4         -9.4259   -0.9143   54.0246 C.3     1  ZINC000550952205    0.1200
      5 C5         -8.5283    0.1509   53.3919 C.3     1  ZINC000550952205   -0.0900
      6 H6         -7.6257    0.2721   53.9911 H       1  ZINC000550952205    0.1000
      7 C7         -8.1555   -0.2667   51.9952 C.3     1  ZINC000550952205   -0.1300
      8 C8         -6.7368    0.1882   51.6027 C.3     1  ZINC000550952205   -0.1200
      9 C9         -6.4192    1.6223   52.0674 C.3     1  ZINC000550952205   -0.1300
     10 C10        -7.5745    2.5638   51.8605 C.3     1  ZINC000550952205   -0.1500
     11 C11        -8.3936    2.6288   53.1658 C.3     1  ZINC000550952205    0.3000
     12 F12        -7.5127    2.6592   54.2522 F       1  ZINC000550952205   -0.2000
     13 F13        -9.1533    3.8035   53.1661 F       1  ZINC000550952205   -0.2000
     14 C14        -9.2867    1.4921   53.3209 C.3     1  ZINC000550952205   -0.1700
     15 C15        -9.9022   -1.4315   57.7744 C.2     1  ZINC000550952205    0.5100
     16 O16       -10.2129   -2.3340   58.5243 O.2     1  ZINC000550952205   -0.4900
     17 N17        -9.6625   -0.1995   58.2655 N.am    1  ZINC000550952205   -0.6400
     18 C18        -9.7718    0.0389   59.6386 C.ar    1  ZINC000550952205    0.1500
     19 C19       -10.9583    0.5451   60.1669 C.ar    1  ZINC000550952205   -0.1200
     20 C20       -11.0792    0.7821   61.5015 C.ar    1  ZINC000550952205   -0.0400
     21 C21       -10.0048    0.5196   62.3758 C.ar    1  ZINC000550952205    0.0800
     22 N22        -9.9239    0.6840   63.7104 N.2     1  ZINC000550952205   -0.4700
     23 C23        -8.8259    0.3694   64.2859 C.2     1  ZINC000550952205    0.1200
     24 C24        -8.5792    0.4941   65.7673 C.3     1  ZINC000550952205   -0.1100
     25 C25        -7.9906    1.8112   66.2771 C.3     1  ZINC000550952205   -0.1500
     26 C26        -9.4574    1.4724   66.5498 C.3     1  ZINC000550952205   -0.1500
     27 S27        -7.6754   -0.2099   63.1667 S.3     1  ZINC000550952205    0.1200
     28 C28        -8.8148    0.0108   61.8423 C.ar    1  ZINC000550952205   -0.1700
     29 C29        -8.7043   -0.2326   60.4760 C.ar    1  ZINC000550952205   -0.0700
     30 H30        -9.4400    0.2365   55.8089 H       1  ZINC000550952205    0.4200
     31 H31        -8.9909   -1.9002   53.8605 H       1  ZINC000550952205    0.0800
     32 H32       -10.4152   -0.8732   53.5689 H       1  ZINC000550952205    0.0800
     33 H33        -8.2094   -1.3531   51.9257 H       1  ZINC000550952205    0.0700
     34 H34        -8.8707    0.1654   51.2952 H       1  ZINC000550952205    0.0700
     35 H35        -6.0130   -0.4942   52.0484 H       1  ZINC000550952205    0.0700
     36 H36        -6.6399    0.1406   50.5181 H       1  ZINC000550952205    0.0700
     37 H37        -6.1667    1.6017   53.1275 H       1  ZINC000550952205    0.0800
     38 H38        -5.5589    1.9916   51.5091 H       1  ZINC000550952205    0.0700
     39 H39        -7.1982    3.5568   51.6146 H       1  ZINC000550952205    0.0900
     40 H40        -8.2051    2.1972   51.0504 H       1  ZINC000550952205    0.1000
     41 H41        -9.9693    1.4610   52.4716 H       1  ZINC000550952205    0.1000
     42 H42        -9.8680    1.6219   54.2339 H       1  ZINC000550952205    0.1000
     43 H43        -9.4141    0.5216   57.6663 H       1  ZINC000550952205    0.4300
     44 H44       -11.7904    0.7518   59.5100 H       1  ZINC000550952205    0.1400
     45 H45       -12.0055    1.1748   61.8940 H       1  ZINC000550952205    0.1400
     46 H46        -8.2740   -0.4226   66.2719 H       1  ZINC000550952205    0.1300
     47 H47        -7.2978    1.7611   67.1172 H       1  ZINC000550952205    0.1000
     48 H48        -7.7818    2.5875   65.5410 H       1  ZINC000550952205    0.1100
     49 H49       -10.2138    2.0258   65.9933 H       1  ZINC000550952205    0.1000
     50 H50        -9.7298    1.1995   67.5695 H       1  ZINC000550952205    0.1100
     51 H51        -7.7859   -0.6304   60.0702 H       1  ZINC000550952205    0.1400
@<TRIPOS>BOND
     1     1     2    2
     2     2     3   am
     3     2    15    1
     4     3     4    1
     5     3    30    1
     6     4     5    1
     7     4    31    1
     8     4    32    1
     9     5     6    1
    10     5    14    1
    11     5     7    1
    12     7     8    1
    13     7    33    1
    14     7    34    1
    15     8     9    1
    16     8    35    1
    17     8    36    1
    18     9    10    1
    19     9    37    1
    20     9    38    1
    21    10    11    1
    22    10    39    1
    23    10    40    1
    24    11    12    1
    25    11    13    1
    26    11    14    1
    27    14    41    1
    28    14    42    1
    29    15    16    2
    30    15    17   am
    31    17    18    1
    32    17    43    1
    33    18    29   ar
    34    18    19   ar
    35    19    20   ar
    36    19    44    1
    37    20    21   ar
    38    20    45    1
    39    21    28   ar
    40    21    22    1
    41    22    23    2
    42    23    24    1
    43    23    27    1
    44    24    26    1
    45    24    25    1
    46    24    46    1
    47    25    26    1
    48    25    47    1
    49    25    48    1
    50    26    49    1
    51    26    50    1
    52    27    28    1
    53    28    29   ar
    54    29    51    1
@<TRIPOS>SUBSTRUCTURE
     1 ZINC000550952205        1 TEMP              0 ****  ****    0 ROOT


##########                                Name:    ZINC001098311495
##########                DOCK_Rotatable_Bonds:                   8
##########                         Heavy_Atoms:                  24
##########                    Molecular_Weight:             328.454
##########                DOCK_Rotatable_Bonds:                   8
##########                       Formal_Charge:          0.00999987
##########                     HBond_Acceptors:                   4
##########                        HBond_Donors:                   1
##########                         Heavy_Atoms:                  24
##########                          Grid_Score:          -31.418514
##########                     Grid_vdw_energy:          -30.987669
##########                      Grid_es_energy:           -0.430845
##########           Internal_energy_repulsive:           35.438232

@<TRIPOS>MOLECULE
ZINC001098311495
 52 54 1 0 0
SMALL
USER_CHARGES


@<TRIPOS>ATOM
      1 C1         -7.2600    1.1524   57.7836 C.3     1  ZINC001098311495   -0.1500
      2 C2         -8.5601    1.6411   57.1418 C.3     1  ZINC001098311495    0.0500
      3 O3         -8.8464    0.8522   55.9853 O.3     1  ZINC001098311495   -0.2800
      4 C4         -9.4419   -0.3491   56.1913 C.ar    1  ZINC001098311495    0.1900
      5 C5         -9.6682   -0.8021   57.4823 C.ar    1  ZINC001098311495   -0.2200
      6 C6        -10.2686   -2.0282   57.6904 C.ar    1  ZINC001098311495   -0.0500
      7 C7        -10.6550   -2.8108   56.6148 C.ar    1  ZINC001098311495   -0.1700
      8 C8        -10.4433   -2.3734   55.3251 C.ar    1  ZINC001098311495   -0.0500
      9 C9         -9.8367   -1.1356   55.1002 C.ar    1  ZINC001098311495   -0.1800
     10 C10        -9.6071   -0.6613   53.7221 C.2     1  ZINC001098311495    0.5600
     11 O11       -10.2478   -1.1324   52.8023 O.2     1  ZINC001098311495   -0.5200
     12 N12        -8.6871    0.2941   53.4827 N.am    1  ZINC001098311495   -0.7200
     13 C13        -8.4604    0.7663   52.1146 C.3     1  ZINC001098311495    0.1600
     14 H14        -9.3826    0.7182   51.5355 H       1  ZINC001098311495    0.1000
     15 C15        -7.3407   -0.0572   51.4323 C.3     1  ZINC001098311495   -0.1200
     16 C16        -6.2456    1.0066   51.1186 C.3     1  ZINC001098311495    0.0500
     17 H17        -5.2392    0.6158   50.9685 H       1  ZINC001098311495    0.1100
     18 C18        -6.8150    1.8665   49.9502 C.3     1  ZINC001098311495   -0.1500
     19 C19        -7.9320    2.6997   50.6250 C.3     1  ZINC001098311495   -0.1500
     20 C20        -7.8923    2.2176   52.1221 C.3     1  ZINC001098311495    0.0400
     21 H21        -8.3323    2.9019   52.8475 H       1  ZINC001098311495    0.1200
     22 N22        -6.4184    1.9492   52.2809 N.3     1  ZINC001098311495   -0.4900
     23 C23        -5.6357    3.1766   52.0842 C.3     1  ZINC001098311495    0.0600
     24 C24        -4.7149    3.3791   53.2599 C.2     1  ZINC001098311495   -0.1600
     25 C25        -3.5183    3.8798   53.0760 C.2     1  ZINC001098311495   -0.1200
     26 C26        -2.5975    4.0823   54.2517 C.3     1  ZINC001098311495   -0.1200
     27 C27        -3.0628    4.2533   51.6890 C.3     1  ZINC001098311495   -0.1200
     28 H28        -7.3687    0.1076   58.0744 H       1  ZINC001098311495    0.0700
     29 H29        -6.4434    1.2473   57.0678 H       1  ZINC001098311495    0.0700
     30 H30        -7.0417    1.7542   58.6658 H       1  ZINC001098311495    0.0800
     31 H31        -8.4514    2.6860   56.8511 H       1  ZINC001098311495    0.0600
     32 H32        -9.3767    1.5462   57.8576 H       1  ZINC001098311495    0.0600
     33 H33        -9.3701   -0.1974   58.3260 H       1  ZINC001098311495    0.1300
     34 H34       -10.4384   -2.3787   58.6977 H       1  ZINC001098311495    0.1300
     35 H35       -11.1244   -3.7679   56.7877 H       1  ZINC001098311495    0.1300
     36 H36       -10.7459   -2.9871   54.4894 H       1  ZINC001098311495    0.1300
     37 H37        -8.1751    0.6691   54.2163 H       1  ZINC001098311495    0.4000
     38 H38        -7.7064   -0.5141   50.5126 H       1  ZINC001098311495    0.0800
     39 H39        -6.9544   -0.8166   52.1119 H       1  ZINC001098311495    0.0800
     40 H40        -6.0429    2.5189   49.5423 H       1  ZINC001098311495    0.0700
     41 H41        -7.2304    1.2278   49.1707 H       1  ZINC001098311495    0.0800
     42 H42        -7.7136    3.7651   50.5515 H       1  ZINC001098311495    0.0700
     43 H43        -8.9011    2.4741   50.1800 H       1  ZINC001098311495    0.0800
     44 H44        -6.3106    4.0285   52.0004 H       1  ZINC001098311495    0.0500
     45 H45        -5.0460    3.0892   51.1716 H       1  ZINC001098311495    0.0800
     46 H46        -5.0414    3.1115   54.2539 H       1  ZINC001098311495    0.1100
     47 H47        -2.7517    5.0784   54.6666 H       1  ZINC001098311495    0.0700
     48 H48        -1.5627    3.9812   53.9243 H       1  ZINC001098311495    0.0600
     49 H49        -2.8120    3.3338   55.0143 H       1  ZINC001098311495    0.0600
     50 H50        -2.6572    3.3730   51.1904 H       1  ZINC001098311495    0.0700
     51 H51        -3.9095    4.6358   51.1191 H       1  ZINC001098311495    0.0600
     52 H52        -2.2920    5.0213   51.7542 H       1  ZINC001098311495    0.0600
@<TRIPOS>BOND
     1     1     2    1
     2     1    28    1
     3     1    29    1
     4     1    30    1
     5     2     3    1
     6     2    31    1
     7     2    32    1
     8     3     4    1
     9     4     9   ar
    10     4     5   ar
    11     5     6   ar
    12     5    33    1
    13     6     7   ar
    14     6    34    1
    15     7     8   ar
    16     7    35    1
    17     8     9   ar
    18     8    36    1
    19     9    10    1
    20    10    11    2
    21    10    12   am
    22    12    13    1
    23    12    37    1
    24    13    14    1
    25    13    20    1
    26    13    15    1
    27    15    16    1
    28    15    38    1
    29    15    39    1
    30    16    17    1
    31    16    22    1
    32    16    18    1
    33    18    19    1
    34    18    40    1
    35    18    41    1
    36    19    20    1
    37    19    42    1
    38    19    43    1
    39    20    21    1
    40    20    22    1
    41    22    23    1
    42    23    24    1
    43    23    44    1
    44    23    45    1
    45    24    25    2
    46    24    46    1
    47    25    26    1
    48    25    27    1
    49    26    47    1
    50    26    48    1
    51    26    49    1
    52    27    50    1
    53    27    51    1
    54    27    52    1
@<TRIPOS>SUBSTRUCTURE
     1 ZINC001098311495        1 TEMP              0 ****  ****    0 ROOT


##########                                Name:    ZINC000429196987
##########                DOCK_Rotatable_Bonds:                   7
##########                         Heavy_Atoms:                  28
##########                    Molecular_Weight:             403.505
##########                DOCK_Rotatable_Bonds:                   7
##########                       Formal_Charge:          -0.0399997
##########                     HBond_Acceptors:                   9
##########                        HBond_Donors:                   1
##########                         Heavy_Atoms:                  28
##########                          Grid_Score:          -31.413553
##########                     Grid_vdw_energy:          -32.523766
##########                      Grid_es_energy:            1.110213
##########           Internal_energy_repulsive:           12.926259

@<TRIPOS>MOLECULE
ZINC000429196987
 53 55 1 0 0
SMALL
USER_CHARGES


@<TRIPOS>ATOM
      1 C1        -12.6588   -3.5001   57.3159 C.3     1  ZINC000429196987    0.0800
      2 N2        -12.1356   -2.1558   57.0601 N.am    1  ZINC000429196987   -0.6300
      3 C3        -12.6867   -1.0059   57.7811 C.3     1  ZINC000429196987    0.1600
      4 C4        -11.7013   -0.5483   58.8254 C.ar    1  ZINC000429196987   -0.0600
      5 C5        -11.3832    0.7925   58.9351 C.ar    1  ZINC000429196987   -0.1300
      6 C6        -10.4792    1.2121   59.8931 C.ar    1  ZINC000429196987   -0.0300
      7 C7         -9.8938    0.2912   60.7415 C.ar    1  ZINC000429196987   -0.6600
      8 S8         -8.7412    0.8261   61.9622 S.o2    1  ZINC000429196987    2.5000
      9 C9         -9.7718    1.3378   63.3646 C.3     1  ZINC000429196987   -0.6500
     10 O10        -8.0047   -0.3452   62.2859 O.2     1  ZINC000429196987   -0.9400
     11 O11        -8.1050    1.9523   61.3738 O.2     1  ZINC000429196987   -0.9400
     12 C12       -10.2130   -1.0494   60.6327 C.ar    1  ZINC000429196987   -0.0300
     13 C13       -11.1198   -1.4687   59.6773 C.ar    1  ZINC000429196987   -0.1100
     14 C14       -11.1472   -1.9772   56.1615 C.2     1  ZINC000429196987    0.7100
     15 O15       -10.6907   -2.9315   55.5621 O.2     1  ZINC000429196987   -0.5800
     16 N16       -10.6647   -0.7407   55.9274 N.am    1  ZINC000429196987   -0.7400
     17 C17        -9.5890   -0.5468   54.9519 C.3     1  ZINC000429196987    0.1600
     18 C18       -10.1452   -0.7195   53.5357 C.3     1  ZINC000429196987   -0.1300
     19 C19        -9.0314   -0.4560   52.5198 C.3     1  ZINC000429196987    0.0700
     20 N20        -8.5157    0.9071   52.6996 N.3     1  ZINC000429196987   -0.4700
     21 C21        -7.5936    1.2258   51.7087 C.ar    1  ZINC000429196987    0.2500
     22 C22        -6.4033    0.5074   51.6022 C.ar    1  ZINC000429196987   -0.1300
     23 C23        -5.5177    0.8645   50.5977 C.ar    1  ZINC000429196987   -0.1000
     24 C24        -5.8694    1.9139   49.7604 C.ar    1  ZINC000429196987    0.0200
     25 N25        -7.0170    2.5390   49.9332 N.ar    1  ZINC000429196987   -0.2200
     26 N26        -7.8444    2.2102   50.8577 N.ar    1  ZINC000429196987   -0.2800
     27 C27        -7.9336    1.0827   54.0362 C.3     1  ZINC000429196987    0.0600
     28 C28        -9.0146    0.8651   55.0974 C.3     1  ZINC000429196987   -0.1200
     29 H29       -13.4871   -3.7029   56.6370 H       1  ZINC000429196987    0.0600
     30 H30       -11.8692   -4.2341   57.1551 H       1  ZINC000429196987    0.0700
     31 H31       -13.0095   -3.5636   58.3461 H       1  ZINC000429196987    0.0800
     32 H32       -12.8758   -0.1936   57.0792 H       1  ZINC000429196987    0.1000
     33 H33       -13.6206   -1.2934   58.2641 H       1  ZINC000429196987    0.0900
     34 H34       -11.8406    1.5120   58.2722 H       1  ZINC000429196987    0.1300
     35 H35       -10.2301    2.2595   59.9784 H       1  ZINC000429196987    0.1400
     36 H36       -10.3645    0.4900   63.7083 H       1  ZINC000429196987    0.1300
     37 H37        -9.1336    1.6878   64.1758 H       1  ZINC000429196987    0.1300
     38 H38       -10.4366    2.1431   63.0521 H       1  ZINC000429196987    0.1300
     39 H39        -9.7559   -1.7690   61.2958 H       1  ZINC000429196987    0.1400
     40 H40       -11.3691   -2.5160   59.5923 H       1  ZINC000429196987    0.1400
     41 H41       -11.0296    0.0208   56.4047 H       1  ZINC000429196987    0.4000
     42 H42        -8.8018   -1.2802   55.1270 H       1  ZINC000429196987    0.0900
     43 H43       -10.5171   -1.7367   53.4124 H       1  ZINC000429196987    0.0800
     44 H44       -10.9587   -0.0121   53.3755 H       1  ZINC000429196987    0.0700
     45 H45        -8.2243   -1.1726   52.6717 H       1  ZINC000429196987    0.0600
     46 H46        -9.4277   -0.5641   51.5102 H       1  ZINC000429196987    0.0900
     47 H47        -6.1783   -0.3016   52.2814 H       1  ZINC000429196987    0.1500
     48 H48        -4.5812    0.3418   50.4704 H       1  ZINC000429196987    0.1500
     49 H49        -5.2026    2.2187   48.9674 H       1  ZINC000429196987    0.1700
     50 H50        -7.1316    0.3589   54.1810 H       1  ZINC000429196987    0.0500
     51 H51        -7.5326    2.0921   54.1280 H       1  ZINC000429196987    0.0900
     52 H52        -9.8104    1.5975   54.9618 H       1  ZINC000429196987    0.0800
     53 H53        -8.5788    0.9801   56.0898 H       1  ZINC000429196987    0.0800
@<TRIPOS>BOND
     1     1     2    1
     2     1    29    1
     3     1    30    1
     4     1    31    1
     5     2     3    1
     6     2    14   am
     7     3     4    1
     8     3    32    1
     9     3    33    1
    10     4    13   ar
    11     4     5   ar
    12     5     6   ar
    13     5    34    1
    14     6     7   ar
    15     6    35    1
    16     7     8    1
    17     7    12   ar
    18     8     9    1
    19     8    10    2
    20     8    11    2
    21     9    36    1
    22     9    37    1
    23     9    38    1
    24    12    13   ar
    25    12    39    1
    26    13    40    1
    27    14    15    2
    28    14    16   am
    29    16    17    1
    30    16    41    1
    31    17    28    1
    32    17    18    1
    33    17    42    1
    34    18    19    1
    35    18    43    1
    36    18    44    1
    37    19    20    1
    38    19    45    1
    39    19    46    1
    40    20    21    1
    41    20    27    1
    42    21    26   ar
    43    21    22   ar
    44    22    23   ar
    45    22    47    1
    46    23    24   ar
    47    23    48    1
    48    24    25   ar
    49    24    49    1
    50    25    26   ar
    51    27    28    1
    52    27    50    1
    53    27    51    1
    54    28    52    1
    55    28    53    1
@<TRIPOS>SUBSTRUCTURE
     1 ZINC000429196987        1 TEMP              0 ****  ****    0 ROOT


##########                                Name:    ZINC000822449555
##########                DOCK_Rotatable_Bonds:                   5
##########                         Heavy_Atoms:                  27
##########                    Molecular_Weight:             366.383
##########                DOCK_Rotatable_Bonds:                   5
##########                       Formal_Charge:          -0.0100009
##########                     HBond_Acceptors:                  10
##########                        HBond_Donors:                   2
##########                         Heavy_Atoms:                  27
##########                          Grid_Score:          -31.408518
##########                     Grid_vdw_energy:          -29.074474
##########                      Grid_es_energy:           -2.334044
##########           Internal_energy_repulsive:            9.579679

@<TRIPOS>MOLECULE
ZINC000822449555
 45 48 1 0 0
SMALL
USER_CHARGES


@<TRIPOS>ATOM
      1 C1        -10.6829   -2.6345   58.7148 C.3     1  ZINC000822449555   -0.1100
      2 C2        -10.3803   -1.4415   57.8449 C.ar    1  ZINC000822449555    0.1400
      3 N3        -10.8015   -1.4224   56.5949 N.ar    1  ZINC000822449555   -0.5000
      4 C4        -10.5589   -0.3960   55.7948 C.ar    1  ZINC000822449555    0.3000
      5 N5        -11.0238   -0.4212   54.4827 N.3     1  ZINC000822449555   -0.4700
      6 C6         -9.9106   -0.5552   53.5319 C.3     1  ZINC000822449555    0.0200
      7 C7        -10.4692   -0.6388   52.1089 C.3     1  ZINC000822449555    0.0600
      8 O8        -11.2684    0.5180   51.8473 O.3     1  ZINC000822449555   -0.3800
      9 C9        -12.3624    0.6792   52.7543 C.3     1  ZINC000822449555    0.0600
     10 C10       -11.8229    0.7761   54.1838 C.3     1  ZINC000822449555    0.0300
     11 C11        -9.8452    0.7073   56.2503 C.ar    1  ZINC000822449555   -0.1700
     12 C12        -9.3878    0.7224   57.5553 C.ar    1  ZINC000822449555   -0.0500
     13 C13        -9.6671   -0.3741   58.3694 C.ar    1  ZINC000822449555    0.0600
     14 N14        -9.2234   -0.4020   59.6981 N.am    1  ZINC000822449555   -0.6600
     15 C15        -9.6024    0.5662   60.5556 C.2     1  ZINC000822449555    0.5700
     16 O16       -10.3292    1.4642   60.1762 O.2     1  ZINC000822449555   -0.5100
     17 C17        -9.1346    0.5367   61.9563 C.ar    1  ZINC000822449555   -0.1800
     18 C18        -7.9842   -0.1833   62.3061 C.ar    1  ZINC000822449555   -0.0100
     19 C19        -7.5856   -0.1816   63.6284 C.ar    1  ZINC000822449555   -0.1300
     20 C20        -8.3346    0.5307   64.5641 C.ar    1  ZINC000822449555    0.2300
     21 C21        -7.9133    0.5378   65.9863 C.2     1  ZINC000822449555    0.2100
     22 N22        -8.5158    1.1560   66.9833 N.2     1  ZINC000822449555   -0.2500
     23 N23        -7.8444    0.9190   68.0574 N.pl3   1  ZINC000822449555   -0.2200
     24 N24        -6.8361    0.1709   67.7732 N.2     1  ZINC000822449555   -0.0400
     25 N25        -6.8490   -0.0879   66.5097 N.2     1  ZINC000822449555   -0.2500
     26 N26        -9.4196    1.2030   64.1989 N.ar    1  ZINC000822449555   -0.4500
     27 C27        -9.8292    1.2307   62.9497 C.ar    1  ZINC000822449555    0.1400
     28 H28       -11.6350   -2.4814   59.2230 H       1  ZINC000822449555    0.0800
     29 H29       -10.7412   -3.5299   58.0960 H       1  ZINC000822449555    0.0800
     30 H30        -9.8915   -2.7549   59.4545 H       1  ZINC000822449555    0.0700
     31 H31        -9.2545    0.3112   53.6150 H       1  ZINC000822449555    0.0600
     32 H32        -9.3478   -1.4615   53.7557 H       1  ZINC000822449555    0.1000
     33 H33        -9.6454   -0.6808   51.3964 H       1  ZINC000822449555    0.1100
     34 H34       -11.0824   -1.5346   52.0107 H       1  ZINC000822449555    0.0600
     35 H35       -12.9077    1.5904   52.5085 H       1  ZINC000822449555    0.1000
     36 H36       -13.0305   -0.1783   52.6748 H       1  ZINC000822449555    0.0600
     37 H37       -12.6560    0.8417   54.8836 H       1  ZINC000822449555    0.1000
     38 H38       -11.1974    1.6639   54.2774 H       1  ZINC000822449555    0.0600
     39 H39        -9.6504    1.5418   55.5930 H       1  ZINC000822449555    0.1400
     40 H40        -8.8308    1.5657   57.9359 H       1  ZINC000822449555    0.1500
     41 H41        -8.6436   -1.1183   60.0008 H       1  ZINC000822449555    0.4100
     42 H42        -7.4234   -0.7266   61.5600 H       1  ZINC000822449555    0.1600
     43 H43        -6.7042   -0.7258   63.9340 H       1  ZINC000822449555    0.1600
     44 H44        -8.0642    1.2521   68.9414 H       1  ZINC000822449555    0.4800
     45 H45       -10.7166    1.7890   62.6905 H       1  ZINC000822449555    0.1700
@<TRIPOS>BOND
     1     1     2    1
     2     1    28    1
     3     1    29    1
     4     1    30    1
     5     2    13   ar
     6     2     3   ar
     7     3     4   ar
     8     4     5    1
     9     4    11   ar
    10     5    10    1
    11     5     6    1
    12     6     7    1
    13     6    31    1
    14     6    32    1
    15     7     8    1
    16     7    33    1
    17     7    34    1
    18     8     9    1
    19     9    10    1
    20     9    35    1
    21     9    36    1
    22    10    37    1
    23    10    38    1
    24    11    12   ar
    25    11    39    1
    26    12    13   ar
    27    12    40    1
    28    13    14    1
    29    14    15   am
    30    14    41    1
    31    15    16    2
    32    15    17    1
    33    17    27   ar
    34    17    18   ar
    35    18    19   ar
    36    18    42    1
    37    19    20   ar
    38    19    43    1
    39    20    21    1
    40    20    26   ar
    41    21    25    1
    42    21    22    2
    43    22    23    1
    44    23    24    1
    45    23    44    1
    46    24    25    2
    47    26    27   ar
    48    27    45    1
@<TRIPOS>SUBSTRUCTURE
     1 ZINC000822449555        1 TEMP              0 ****  ****    0 ROOT


##########                                Name:    ZINC001456607258
##########                DOCK_Rotatable_Bonds:                   9
##########                         Heavy_Atoms:                  25
##########                    Molecular_Weight:             339.437
##########                DOCK_Rotatable_Bonds:                   9
##########                       Formal_Charge:          -0.0200009
##########                     HBond_Acceptors:                   5
##########                        HBond_Donors:                   2
##########                         Heavy_Atoms:                  25
##########                          Grid_Score:          -31.405504
##########                     Grid_vdw_energy:          -30.138285
##########                      Grid_es_energy:           -1.267220
##########           Internal_energy_repulsive:            9.267239

@<TRIPOS>MOLECULE
ZINC001456607258
 50 52 1 0 0
SMALL
USER_CHARGES


@<TRIPOS>ATOM
      1 C1         -8.8216    1.8200   55.3874 C.3     1  ZINC001456607258   -0.1600
      2 C2         -9.0714    1.7845   53.8783 C.3     1  ZINC001456607258   -0.1100
      3 C3         -9.0223    0.3363   53.3872 C.3     1  ZINC001456607258   -0.1000
      4 H4         -8.0578   -0.1018   53.6434 H       1  ZINC001456607258    0.0900
      5 C5         -9.2089    0.3061   51.8688 C.3     1  ZINC001456607258   -0.0700
      6 C6         -7.9569    0.8106   51.1988 C.ar    1  ZINC001456607258   -0.0800
      7 C7         -6.7918    0.0695   51.2634 C.ar    1  ZINC001456607258   -0.1200
      8 C8         -5.6433    0.5323   50.6488 C.ar    1  ZINC001456607258   -0.1200
      9 C9         -5.6601    1.7360   49.9693 C.ar    1  ZINC001456607258   -0.1200
     10 C10        -6.8254    2.4766   49.9039 C.ar    1  ZINC001456607258   -0.1200
     11 C11        -7.9750    2.0118   50.5148 C.ar    1  ZINC001456607258   -0.1200
     12 C12       -10.1239   -0.4546   54.0445 C.2     1  ZINC001456607258    0.5200
     13 O13       -11.2733   -0.0760   53.9640 O.2     1  ZINC001456607258   -0.5300
     14 N14        -9.8318   -1.5827   54.7217 N.am    1  ZINC001456607258   -0.7300
     15 C15       -10.9027   -2.3515   55.3607 C.3     1  ZINC001456607258    0.1300
     16 C16       -11.2797   -1.6936   56.6896 C.3     1  ZINC001456607258   -0.1400
     17 C17       -11.9373   -2.6574   57.6938 C.3     1  ZINC001456607258    0.1100
     18 N18       -11.0954   -2.0066   58.7165 N.am    1  ZINC001456607258   -0.6500
     19 C19       -11.1869   -1.8439   60.0513 C.2     1  ZINC001456607258    0.6100
     20 O20       -12.1399   -2.2980   60.6554 O.2     1  ZINC001456607258   -0.5400
     21 C21       -10.1329   -1.1164   60.7783 C.2     1  ZINC001456607258   -0.2300
     22 C22        -8.7844   -1.3322   60.7043 C.2     1  ZINC001456607258    0.0400
     23 N23        -8.1686   -0.4578   61.5224 N.pl3   1  ZINC001456607258   -0.5500
     24 C24        -9.0872    0.3388   62.1416 C.2     1  ZINC001456607258   -0.0200
     25 C25       -10.3169   -0.0096   61.7231 C.2     1  ZINC001456607258   -0.1400
     26 C26       -10.1134   -1.6055   57.6905 C.3     1  ZINC001456607258    0.1100
     27 H27        -8.7656    2.8558   55.7222 H       1  ZINC001456607258    0.0600
     28 H28        -9.6389    1.3153   55.9029 H       1  ZINC001456607258    0.0600
     29 H29        -7.8827    1.3142   55.6123 H       1  ZINC001456607258    0.0600
     30 H30       -10.0521    2.2084   53.6623 H       1  ZINC001456607258    0.0800
     31 H31        -8.3035    2.3671   53.3692 H       1  ZINC001456607258    0.0700
     32 H32        -9.4063   -0.7165   51.5474 H       1  ZINC001456607258    0.0800
     33 H33       -10.0500    0.9424   51.5934 H       1  ZINC001456607258    0.0900
     34 H34        -6.7787   -0.8709   51.7943 H       1  ZINC001456607258    0.1200
     35 H35        -4.7329   -0.0464   50.6998 H       1  ZINC001456607258    0.1200
     36 H36        -4.7627    2.0979   49.4897 H       1  ZINC001456607258    0.1200
     37 H37        -6.8384    3.4172   49.3733 H       1  ZINC001456607258    0.1200
     38 H38        -8.8855    2.5904   50.4638 H       1  ZINC001456607258    0.1200
     39 H39        -8.9125   -1.8854   54.7860 H       1  ZINC001456607258    0.4000
     40 H40       -11.7742   -2.3739   54.7063 H       1  ZINC001456607258    0.0700
     41 H41       -10.5595   -3.3697   55.5438 H       1  ZINC001456607258    0.0800
     42 H42       -11.8195   -0.7554   56.5612 H       1  ZINC001456607258    0.1100
     43 H43       -13.0053   -2.4877   57.8310 H       1  ZINC001456607258    0.0800
     44 H44       -11.6904   -3.7053   57.5233 H       1  ZINC001456607258    0.0900
     45 H45        -8.2964   -2.0775   60.0936 H       1  ZINC001456607258    0.1700
     46 H46        -7.2090   -0.4024   61.6531 H       1  ZINC001456607258    0.4200
     47 H47        -8.8630    1.1241   62.8483 H       1  ZINC001456607258    0.1700
     48 H48       -11.2539    0.4325   62.0280 H       1  ZINC001456607258    0.1500
     49 H49        -9.3306   -2.3445   57.5190 H       1  ZINC001456607258    0.0900
     50 H50        -9.7251   -0.5960   57.8250 H       1  ZINC001456607258    0.0900
@<TRIPOS>BOND
     1     1     2    1
     2     1    27    1
     3     1    28    1
     4     1    29    1
     5     2     3    1
     6     2    30    1
     7     2    31    1
     8     3     4    1
     9     3     5    1
    10     3    12    1
    11     5     6    1
    12     5    32    1
    13     5    33    1
    14     6    11   ar
    15     6     7   ar
    16     7     8   ar
    17     7    34    1
    18     8     9   ar
    19     8    35    1
    20     9    10   ar
    21     9    36    1
    22    10    11   ar
    23    10    37    1
    24    11    38    1
    25    12    13    2
    26    12    14   am
    27    14    15    1
    28    14    39    1
    29    15    16    1
    30    15    40    1
    31    15    41    1
    32    16    26    1
    33    16    17    1
    34    16    42    1
    35    17    18    1
    36    17    43    1
    37    17    44    1
    38    18    19   am
    39    18    26    1
    40    19    20    2
    41    19    21    1
    42    21    25    1
    43    21    22    2
    44    22    23    1
    45    22    45    1
    46    23    24    1
    47    23    46    1
    48    24    25    2
    49    24    47    1
    50    25    48    1
    51    26    49    1
    52    26    50    1
@<TRIPOS>SUBSTRUCTURE
     1 ZINC001456607258        1 TEMP              0 ****  ****    0 ROOT


##########                                Name:    ZINC000540473851
##########                DOCK_Rotatable_Bonds:                   5
##########                         Heavy_Atoms:                  29
##########                    Molecular_Weight:             411.503
##########                DOCK_Rotatable_Bonds:                   5
##########                       Formal_Charge:           0.0200001
##########                     HBond_Acceptors:                   8
##########                        HBond_Donors:                   0
##########                         Heavy_Atoms:                  29
##########                          Grid_Score:          -31.374304
##########                     Grid_vdw_energy:          -29.776320
##########                      Grid_es_energy:           -1.597985
##########           Internal_energy_repulsive:           27.271025

@<TRIPOS>MOLECULE
ZINC000540473851
 51 54 1 0 0
SMALL
USER_CHARGES


@<TRIPOS>ATOM
      1 C1        -10.7479    2.5087   56.2630 C.3     1  ZINC000540473851   -0.0800
      2 C2        -10.0425    1.4865   57.1166 C.2     1  ZINC000540473851    0.1500
      3 C3         -9.5996    0.2857   56.6290 C.2     1  ZINC000540473851   -0.3100
      4 C4         -9.7321   -0.1892   55.2463 C.2     1  ZINC000540473851    0.6000
      5 O5        -10.6991   -0.8521   54.9209 O.2     1  ZINC000540473851   -0.5100
      6 N6         -8.7828    0.1093   54.3375 N.am    1  ZINC000540473851   -0.6100
      7 C7         -8.8988   -0.3513   52.9455 C.3     1  ZINC000540473851    0.1000
      8 C8         -8.7017    0.8516   52.0168 C.3     1  ZINC000540473851    0.0400
      9 N9         -7.4351    1.5186   52.3468 N.3     1  ZINC000540473851   -0.5300
     10 C10        -7.1245    2.5714   51.3705 C.3     1  ZINC000540473851    0.1200
     11 H11        -7.3840    3.5436   51.7897 H       1  ZINC000540473851    0.0500
     12 C12        -7.9313    2.3355   50.0921 C.3     1  ZINC000540473851   -0.1400
     13 C13        -5.6527    2.5396   51.0486 C.ar    1  ZINC000540473851   -0.0500
     14 C14        -5.1300    1.4968   50.3073 C.ar    1  ZINC000540473851   -0.1000
     15 C15        -3.7797    1.4662   50.0112 C.ar    1  ZINC000540473851   -0.0900
     16 C16        -2.9513    2.4787   50.4562 C.ar    1  ZINC000540473851   -0.1500
     17 C17        -3.4740    3.5243   51.1986 C.ar    1  ZINC000540473851    0.1000
     18 F18        -2.6649    4.5147   51.6341 F       1  ZINC000540473851   -0.1400
     19 C19        -4.8270    3.5565   51.4899 C.ar    1  ZINC000540473851   -0.1500
     20 C20        -7.4569    2.0577   53.7132 C.3     1  ZINC000540473851    0.0400
     21 C21        -7.6061    0.9094   54.7100 C.3     1  ZINC000540473851    0.1200
     22 S22        -8.8417   -0.5867   57.9592 S.3     1  ZINC000540473851    0.2800
     23 C23        -9.1820    0.7103   59.0193 C.2     1  ZINC000540473851    0.0800
     24 C24        -8.8248    0.7421   60.4547 C.ar    1  ZINC000540473851    0.3800
     25 N25        -8.1978   -0.2979   60.9894 N.ar    1  ZINC000540473851   -0.5100
     26 C26        -7.8648   -0.3014   62.2680 C.ar    1  ZINC000540473851    0.1600
     27 C27        -8.1785    0.7995   63.0523 C.ar    1  ZINC000540473851   -0.2100
     28 C28        -8.8343    1.8700   62.4613 C.ar    1  ZINC000540473851    0.1500
     29 N29        -9.1342    1.8121   61.1758 N.ar    1  ZINC000540473851   -0.4700
     30 N30        -9.7943    1.6693   58.3852 N.2     1  ZINC000540473851   -0.4300
     31 H31       -10.0134    3.1808   55.8193 H       1  ZINC000540473851    0.0900
     32 H32       -11.3013    2.0022   55.4723 H       1  ZINC000540473851    0.0800
     33 H33       -11.4394    3.0825   56.8802 H       1  ZINC000540473851    0.0800
     34 H34        -8.1331   -1.0999   52.7425 H       1  ZINC000540473851    0.0900
     35 H35        -9.8873   -0.7810   52.7832 H       1  ZINC000540473851    0.0900
     36 H36        -8.6745    0.5113   50.9816 H       1  ZINC000540473851    0.1000
     37 H37        -9.5266    1.5518   52.1484 H       1  ZINC000540473851    0.0400
     38 H38        -7.6720    1.3633   49.6730 H       1  ZINC000540473851    0.0700
     39 H39        -8.9960    2.3584   50.3250 H       1  ZINC000540473851    0.0600
     40 H40        -7.7010    3.1167   49.3677 H       1  ZINC000540473851    0.0600
     41 H41        -5.7767    0.7047   49.9594 H       1  ZINC000540473851    0.1400
     42 H42        -3.3723    0.6506   49.4322 H       1  ZINC000540473851    0.1300
     43 H43        -1.8965    2.4543   50.2254 H       1  ZINC000540473851    0.1300
     44 H44        -5.2358    4.3716   52.0685 H       1  ZINC000540473851    0.1300
     45 H45        -6.5271    2.5919   53.9083 H       1  ZINC000540473851    0.1000
     46 H46        -8.2992    2.7410   53.8212 H       1  ZINC000540473851    0.0400
     47 H47        -7.7378    1.3113   55.7145 H       1  ZINC000540473851    0.1000
     48 H48        -6.7174    0.2792   54.6782 H       1  ZINC000540473851    0.0800
     49 H49        -7.3549   -1.1509   62.6978 H       1  ZINC000540473851    0.1800
     50 H50        -7.9181    0.8225   64.1001 H       1  ZINC000540473851    0.1600
     51 H51        -9.0926    2.7417   63.0441 H       1  ZINC000540473851    0.1800
@<TRIPOS>BOND
     1     1     2    1
     2     1    31    1
     3     1    32    1
     4     1    33    1
     5     2    30    1
     6     2     3    2
     7     3     4    1
     8     3    22    1
     9     4     5    2
    10     4     6   am
    11     6    21    1
    12     6     7    1
    13     7     8    1
    14     7    34    1
    15     7    35    1
    16     8     9    1
    17     8    36    1
    18     8    37    1
    19     9    10    1
    20     9    20    1
    21    10    11    1
    22    10    12    1
    23    10    13    1
    24    12    38    1
    25    12    39    1
    26    12    40    1
    27    13    19   ar
    28    13    14   ar
    29    14    15   ar
    30    14    41    1
    31    15    16   ar
    32    15    42    1
    33    16    17   ar
    34    16    43    1
    35    17    18    1
    36    17    19   ar
    37    19    44    1
    38    20    21    1
    39    20    45    1
    40    20    46    1
    41    21    47    1
    42    21    48    1
    43    22    23    1
    44    23    24    1
    45    23    30    2
    46    24    29   ar
    47    24    25   ar
    48    25    26   ar
    49    26    27   ar
    50    26    49    1
    51    27    28   ar
    52    27    50    1
    53    28    29   ar
    54    28    51    1
@<TRIPOS>SUBSTRUCTURE
     1 ZINC000540473851        1 TEMP              0 ****  ****    0 ROOT


##########                                Name:    ZINC000291036115
##########                DOCK_Rotatable_Bonds:                   5
##########                         Heavy_Atoms:                  22
##########                    Molecular_Weight:             366.193
##########                DOCK_Rotatable_Bonds:                   5
##########                       Formal_Charge:                0.01
##########                     HBond_Acceptors:                   7
##########                        HBond_Donors:                   0
##########                         Heavy_Atoms:                  22
##########                          Grid_Score:          -31.359049
##########                     Grid_vdw_energy:          -31.493862
##########                      Grid_es_energy:            0.134812
##########           Internal_energy_repulsive:            5.300250

@<TRIPOS>MOLECULE
ZINC000291036115
 35 37 1 0 0
SMALL
USER_CHARGES


@<TRIPOS>ATOM
      1 C1         -9.6764    1.5408   52.4625 C.3     1  <0>        -0.1500
      2 C2         -8.5773    0.7267   53.1482 C.3     1  <0>        -0.0400
      3 H3         -7.8670    1.4032   53.6234 H       1  <0>         0.0900
      4 C4         -7.8505   -0.1272   52.1073 C.3     1  <0>        -0.0200
      5 C5         -6.9969    0.7595   51.2377 C.2     1  <0>         0.1900
      6 N6         -5.9079    1.3939   51.6000 N.2     1  <0>        -0.4500
      7 C7         -5.4915    2.0532   50.5042 C.2     1  <0>         0.1500
      8 C8         -4.2727    2.9338   50.4025 C.3     1  <0>         0.2300
      9 N9         -3.1408    2.1458   49.9087 N.pl3   1  <0>        -0.3900
     10 C10        -1.8461    2.3033   50.2349 C.2     1  <0>         0.2600
     11 N11        -1.1514    1.4056   49.5844 N.2     1  <0>        -0.5400
     12 C12        -1.9639    0.6603   48.8363 C.2     1  <0>         0.2000
     13 N13        -3.1931    1.0719   49.0052 N.2     1  <0>        -0.3100
     14 N14        -6.3327    1.7911   49.5491 N.2     1  <0>        -0.3600
     15 O15        -7.2019    1.0450   49.9483 O.3     1  <0>         0.0900
     16 C16        -9.1929   -0.1694   54.1917 C.ar    1  <0>        -0.0900
     17 C17       -10.1015   -1.1417   53.8180 C.ar    1  <0>        -0.0700
     18 C18       -10.6667   -1.9649   54.7739 C.ar    1  <0>        -0.1400
     19 C19       -10.3228   -1.8154   56.1063 C.ar    1  <0>         0.1300
     20 F20       -10.8744   -2.6196   57.0412 F       1  <0>        -0.1200
     21 C21        -9.4119   -0.8404   56.4802 C.ar    1  <0>        -0.1300
     22 Br22       -8.9400   -0.6346   58.2997 Br      1  <0>        -0.0200
     23 C23        -8.8441   -0.0220   55.5215 C.ar    1  <0>        -0.0500
     24 H24        -9.2312    2.1890   51.7077 H       1  <0>         0.0600
     25 H25       -10.3868    0.8644   51.9873 H       1  <0>         0.0700
     26 H26       -10.1943    2.1491   53.2040 H       1  <0>         0.0700
     27 H27        -7.2183   -0.8569   52.6133 H       1  <0>         0.1200
     28 H28        -8.5821   -0.6470   51.4888 H       1  <0>         0.1100
     29 H29        -4.4733    3.7535   49.7126 H       1  <0>         0.1300
     30 H30        -4.0329    3.3373   51.3863 H       1  <0>         0.1200
     31 H31        -1.4488    3.0425   50.9149 H       1  <0>         0.2200
     32 H32        -1.6572   -0.1546   48.1974 H       1  <0>         0.2200
     33 H33       -10.3702   -1.2582   52.7785 H       1  <0>         0.1400
     34 H34       -11.3767   -2.7242   54.4814 H       1  <0>         0.1500
     35 H35        -8.1341    0.7381   55.8123 H       1  <0>         0.1400
@<TRIPOS>BOND
     1     1     2    1
     2     1    24    1
     3     1    25    1
     4     1    26    1
     5     2     3    1
     6     2     4    1
     7     2    16    1
     8     4     5    1
     9     4    27    1
    10     4    28    1
    11     5    15    1
    12     5     6    2
    13     6     7    1
    14     7     8    1
    15     7    14    2
    16     8     9    1
    17     8    29    1
    18     8    30    1
    19     9    13    1
    20     9    10    1
    21    10    11    2
    22    10    31    1
    23    11    12    1
    24    12    13    2
    25    12    32    1
    26    14    15    1
    27    16    23   ar
    28    16    17   ar
    29    17    18   ar
    30    17    33    1
    31    18    19   ar
    32    18    34    1
    33    19    20    1
    34    19    21   ar
    35    21    22    1
    36    21    23   ar
    37    23    35    1
@<TRIPOS>SUBSTRUCTURE
     1 <0>         1 TEMP              0 ****  ****    0 ROOT


##########                                Name:    ZINC000671418508
##########                DOCK_Rotatable_Bonds:                   9
##########                         Heavy_Atoms:                  28
##########                    Molecular_Weight:             405.884
##########                DOCK_Rotatable_Bonds:                   9
##########                       Formal_Charge:         -1.3411e-07
##########                     HBond_Acceptors:                   9
##########                        HBond_Donors:                   2
##########                         Heavy_Atoms:                  28
##########                          Grid_Score:          -31.357798
##########                     Grid_vdw_energy:          -31.674509
##########                      Grid_es_energy:            0.316711
##########           Internal_energy_repulsive:           16.720165

@<TRIPOS>MOLECULE
ZINC000671418508
 52 54 1 0 0
SMALL
USER_CHARGES


@<TRIPOS>ATOM
      1 C1         -4.6087    1.5930   49.9784 C.3     1  ZINC000671418508    0.1000
      2 N2         -5.9984    1.7648   50.4090 N.pl3   1  ZINC000671418508   -0.3700
      3 C3         -6.6468    1.0084   51.3193 C.2     1  ZINC000671418508    0.0800
      4 C4         -7.9063    1.4896   51.4334 C.2     1  ZINC000671418508   -0.2700
      5 C5         -8.9831    0.9495   52.3390 C.3     1  ZINC000671418508    0.2000
      6 N6         -8.9396    1.6532   53.6231 N.am    1  ZINC000671418508   -0.6900
      7 C7         -8.0237    1.3084   54.5498 C.2     1  ZINC000671418508    0.5100
      8 O8         -7.2360    0.4141   54.3210 O.2     1  ZINC000671418508   -0.5100
      9 C9         -7.9781    2.0275   55.8590 C.2     1  ZINC000671418508    0.5100
     10 O10        -7.2620    2.9979   55.9937 O.2     1  ZINC000671418508   -0.5200
     11 N11        -8.7324    1.5983   56.8903 N.am    1  ZINC000671418508   -0.5800
     12 C12        -9.6025    0.4208   56.7504 C.3     1  ZINC000671418508    0.0800
     13 C13        -9.3141   -0.5381   57.9103 C.3     1  ZINC000671418508    0.0400
     14 N14        -9.4460    0.1840   59.1828 N.3     1  ZINC000671418508   -0.5200
     15 C15        -9.3469   -0.7366   60.3232 C.3     1  ZINC000671418508    0.1300
     16 H16        -8.3864   -1.2511   60.2924 H       1  ZINC000671418508    0.0600
     17 C17       -10.4783   -1.7639   60.2492 C.3     1  ZINC000671418508    0.0900
     18 O18        -9.9523   -3.0217   59.8210 O.3     1  ZINC000671418508   -0.5500
     19 C19        -9.4587    0.0421   61.6085 C.ar    1  ZINC000671418508   -0.0800
     20 C20       -10.6492    0.6622   61.9394 C.ar    1  ZINC000671418508   -0.0600
     21 C21       -10.7523    1.3766   63.1181 C.ar    1  ZINC000671418508   -0.1200
     22 C22        -9.6639    1.4710   63.9670 C.ar    1  ZINC000671418508   -0.0300
     23 Cl23       -9.7929    2.3676   65.4478 Cl      1  ZINC000671418508   -0.0700
     24 C24        -8.4727    0.8503   63.6353 C.ar    1  ZINC000671418508   -0.1200
     25 C25        -8.3725    0.1315   62.4590 C.ar    1  ZINC000671418508   -0.1100
     26 C26        -8.4540    1.2623   59.2888 C.3     1  ZINC000671418508    0.0400
     27 C27        -8.7026    2.2913   58.1872 C.3     1  ZINC000671418508    0.1100
     28 C28        -8.0320    2.5773   50.5632 C.2     1  ZINC000671418508    0.0700
     29 N29        -6.8871    2.7469   49.9530 N.2     1  ZINC000671418508   -0.2900
     30 H30        -3.9537    2.1802   50.6221 H       1  ZINC000671418508    0.0800
     31 H31        -4.3351    0.5400   50.0453 H       1  ZINC000671418508    0.0900
     32 H32        -4.5033    1.9311   48.9475 H       1  ZINC000671418508    0.0900
     33 H33        -6.2344    0.1691   51.8596 H       1  ZINC000671418508    0.1800
     34 H34        -9.9577    1.1004   51.8747 H       1  ZINC000671418508    0.0800
     35 H35        -8.8197   -0.1157   52.5026 H       1  ZINC000671418508    0.0800
     36 H36        -9.5700    2.3673   53.8065 H       1  ZINC000671418508    0.4100
     37 H37       -10.6468    0.7313   56.7830 H       1  ZINC000671418508    0.0800
     38 H38        -9.3950   -0.0773   55.8033 H       1  ZINC000671418508    0.1400
     39 H39       -10.0254   -1.3636   57.8851 H       1  ZINC000671418508    0.0900
     40 H40        -8.3005   -0.9279   57.8166 H       1  ZINC000671418508    0.0400
     41 H41       -10.9321   -1.8761   61.2339 H       1  ZINC000671418508    0.0500
     42 H42       -11.2317   -1.4242   59.5385 H       1  ZINC000671418508    0.0500
     43 H43       -10.4525   -3.7859   60.1387 H       1  ZINC000671418508    0.3800
     44 H44       -11.4987    0.5887   61.2766 H       1  ZINC000671418508    0.1400
     45 H45       -11.6823    1.8612   63.3763 H       1  ZINC000671418508    0.1300
     46 H46        -7.6227    0.9240   64.2973 H       1  ZINC000671418508    0.1300
     47 H47        -7.4428   -0.3534   62.2002 H       1  ZINC000671418508    0.1300
     48 H48        -8.5416    1.7425   60.2634 H       1  ZINC000671418508    0.0900
     49 H49        -7.4525    0.8475   59.1759 H       1  ZINC000671418508    0.0400
     50 H50        -7.9024    3.0316   58.1904 H       1  ZINC000671418508    0.1000
     51 H51        -9.6608    2.7832   58.3549 H       1  ZINC000671418508    0.0800
     52 H52        -8.9193    3.1767   50.4228 H       1  ZINC000671418508    0.1900
@<TRIPOS>BOND
     1     1     2    1
     2     1    30    1
     3     1    31    1
     4     1    32    1
     5     2    29    1
     6     2     3    1
     7     3     4    2
     8     3    33    1
     9     4     5    1
    10     4    28    1
    11     5     6    1
    12     5    34    1
    13     5    35    1
    14     6     7   am
    15     6    36    1
    16     7     8    2
    17     7     9    1
    18     9    10    2
    19     9    11   am
    20    11    27    1
    21    11    12    1
    22    12    13    1
    23    12    37    1
    24    12    38    1
    25    13    14    1
    26    13    39    1
    27    13    40    1
    28    14    15    1
    29    14    26    1
    30    15    16    1
    31    15    17    1
    32    15    19    1
    33    17    18    1
    34    17    41    1
    35    17    42    1
    36    18    43    1
    37    19    25   ar
    38    19    20   ar
    39    20    21   ar
    40    20    44    1
    41    21    22   ar
    42    21    45    1
    43    22    23    1
    44    22    24   ar
    45    24    25   ar
    46    24    46    1
    47    25    47    1
    48    26    27    1
    49    26    48    1
    50    26    49    1
    51    27    50    1
    52    27    51    1
    53    28    29    2
    54    28    52    1
@<TRIPOS>SUBSTRUCTURE
     1 ZINC000671418508        1 TEMP              0 ****  ****    0 ROOT


##########                                Name:    ZINC001707162141
##########                DOCK_Rotatable_Bonds:                   9
##########                         Heavy_Atoms:                  25
##########                    Molecular_Weight:               344.5
##########                DOCK_Rotatable_Bonds:                   9
##########                       Formal_Charge:          -0.0299999
##########                     HBond_Acceptors:                   5
##########                        HBond_Donors:                   1
##########                         Heavy_Atoms:                  25
##########                          Grid_Score:          -31.350502
##########                     Grid_vdw_energy:          -31.140495
##########                      Grid_es_energy:           -0.210006
##########           Internal_energy_repulsive:           77.602180

@<TRIPOS>MOLECULE
ZINC001707162141
 57 59 1 0 0
SMALL
USER_CHARGES


@<TRIPOS>ATOM
      1 C1        -14.8964   -2.0000   59.7579 C.3     1  ZINC001707162141   -0.1800
      2 C2        -13.9247   -1.9327   58.5780 C.3     1  ZINC001707162141    0.1700
      3 H3        -13.9466   -0.9322   58.1459 H       1  ZINC001707162141    0.1000
      4 N4        -12.5651   -2.2345   59.0454 N.3     1  ZINC001707162141   -0.6400
      5 C5        -11.5585   -1.6655   58.1392 C.3     1  ZINC001707162141    0.0700
      6 C6        -10.2857   -1.3471   58.9263 C.3     1  ZINC001707162141    0.1500
      7 H7         -9.8401   -2.2728   59.2906 H       1  ZINC001707162141    0.0700
      8 C8        -10.6281   -0.4378   60.1106 C.3     1  ZINC001707162141   -0.1200
      9 C9         -9.3362   -0.0105   60.8108 C.3     1  ZINC001707162141   -0.0900
     10 H10        -8.7967   -0.8953   61.1488 H       1  ZINC001707162141    0.0700
     11 C11        -9.6763    0.8700   62.0150 C.3     1  ZINC001707162141   -0.1500
     12 C12        -8.4611    0.7779   59.8338 C.3     1  ZINC001707162141   -0.1300
     13 C13        -8.0940   -0.1177   58.6464 C.3     1  ZINC001707162141    0.1100
     14 N14        -9.3296   -0.6497   58.0556 N.am    1  ZINC001707162141   -0.6100
     15 C15        -9.5814   -0.5004   56.7399 C.2     1  ZINC001707162141    0.5100
     16 O16       -10.6050   -0.9441   56.2643 O.2     1  ZINC001707162141   -0.4800
     17 C17        -8.5911    0.2179   55.8600 C.3     1  ZINC001707162141   -0.1400
     18 C18        -9.0258    0.0963   54.3981 C.3     1  ZINC001707162141   -0.0900
     19 C19        -7.9853    0.7673   53.4991 C.3     1  ZINC001707162141   -0.0900
     20 C20        -8.3779    0.5746   52.0330 C.3     1  ZINC001707162141   -0.1500
     21 C21        -7.4901   -0.3311   51.1770 C.3     1  ZINC001707162141   -0.1800
     22 C22        -7.4617    1.1846   50.9702 C.3     1  ZINC001707162141   -0.1800
     23 C23       -14.3320   -2.9400   57.5337 C.ar    1  ZINC001707162141    0.3500
     24 N24       -13.7516   -4.1232   57.5231 N.ar    1  ZINC001707162141   -0.5000
     25 C25       -14.0875   -5.0350   56.6247 C.ar    1  ZINC001707162141    0.1500
     26 C26       -15.0546   -4.7272   55.6809 C.ar    1  ZINC001707162141   -0.2400
     27 C27       -15.6382   -3.4706   55.7206 C.ar    1  ZINC001707162141    0.1500
     28 N28       -15.2551   -2.6123   56.6520 N.ar    1  ZINC001707162141   -0.5200
     29 H29       -14.6017   -1.2715   60.5132 H       1  ZINC001707162141    0.0600
     30 H30       -15.9051   -1.7762   59.4110 H       1  ZINC001707162141    0.0600
     31 H31       -14.8743   -3.0005   60.1900 H       1  ZINC001707162141    0.0600
     32 H32       -12.4267   -1.9082   59.9901 H       1  ZINC001707162141    0.3300
     33 H33       -11.3292   -2.3850   57.3532 H       1  ZINC001707162141    0.1000
     34 H34       -11.9477   -0.7507   57.6923 H       1  ZINC001707162141    0.0200
     35 H35       -11.1560    0.4453   59.7504 H       1  ZINC001707162141    0.0700
     36 H36       -11.2612   -0.9790   60.8137 H       1  ZINC001707162141    0.0700
     37 H37       -10.2152    1.7552   61.6772 H       1  ZINC001707162141    0.0500
     38 H38       -10.2995    0.3086   62.7111 H       1  ZINC001707162141    0.0600
     39 H39        -8.7562    1.1734   62.5146 H       1  ZINC001707162141    0.0600
     40 H40        -7.5517    1.1020   60.3399 H       1  ZINC001707162141    0.0700
     41 H41        -9.0093    1.6496   59.4762 H       1  ZINC001707162141    0.0700
     42 H42        -7.4688   -0.9418   58.9898 H       1  ZINC001707162141    0.0600
     43 H43        -7.5547    0.4667   57.9008 H       1  ZINC001707162141    0.0800
     44 H44        -8.5518    1.2703   56.1410 H       1  ZINC001707162141    0.0800
     45 H45        -7.6044   -0.2284   55.9840 H       1  ZINC001707162141    0.0800
     46 H46        -9.1117   -0.9570   54.1309 H       1  ZINC001707162141    0.0700
     47 H47        -9.9909    0.5850   54.2642 H       1  ZINC001707162141    0.0700
     48 H48        -7.9415    1.8324   53.7265 H       1  ZINC001707162141    0.0600
     49 H49        -7.0083    0.3175   53.6759 H       1  ZINC001707162141    0.0600
     50 H50        -9.4488    0.5673   51.8300 H       1  ZINC001707162141    0.1000
     51 H51        -6.6264   -0.7896   51.6586 H       1  ZINC001707162141    0.0900
     52 H52        -7.9770   -0.9345   50.4109 H       1  ZINC001707162141    0.0900
     53 H53        -7.9298    1.5784   50.0681 H       1  ZINC001707162141    0.0900
     54 H54        -6.5793    1.7232   51.3156 H       1  ZINC001707162141    0.0900
     55 H55       -13.6110   -6.0042   56.6240 H       1  ZINC001707162141    0.1600
     56 H56       -15.3467   -5.4492   54.9327 H       1  ZINC001707162141    0.1400
     57 H57       -16.3949   -3.1957   55.0008 H       1  ZINC001707162141    0.1600
@<TRIPOS>BOND
     1     1     2    1
     2     1    29    1
     3     1    30    1
     4     1    31    1
     5     2     3    1
     6     2     4    1
     7     2    23    1
     8     4     5    1
     9     4    32    1
    10     5     6    1
    11     5    33    1
    12     5    34    1
    13     6     7    1
    14     6    14    1
    15     6     8    1
    16     8     9    1
    17     8    35    1
    18     8    36    1
    19     9    10    1
    20     9    11    1
    21     9    12    1
    22    11    37    1
    23    11    38    1
    24    11    39    1
    25    12    13    1
    26    12    40    1
    27    12    41    1
    28    13    14    1
    29    13    42    1
    30    13    43    1
    31    14    15   am
    32    15    16    2
    33    15    17    1
    34    17    18    1
    35    17    44    1
    36    17    45    1
    37    18    19    1
    38    18    46    1
    39    18    47    1
    40    19    20    1
    41    19    48    1
    42    19    49    1
    43    20    22    1
    44    20    21    1
    45    20    50    1
    46    21    22    1
    47    21    51    1
    48    21    52    1
    49    22    53    1
    50    22    54    1
    51    23    28   ar
    52    23    24   ar
    53    24    25   ar
    54    25    26   ar
    55    25    55    1
    56    26    27   ar
    57    26    56    1
    58    27    28   ar
    59    27    57    1
@<TRIPOS>SUBSTRUCTURE
     1 ZINC001707162141        1 TEMP              0 ****  ****    0 ROOT


##########                                Name:    ZINC000573150059
##########                DOCK_Rotatable_Bonds:                   7
##########                         Heavy_Atoms:                  23
##########                    Molecular_Weight:             378.269
##########                DOCK_Rotatable_Bonds:                   7
##########                       Formal_Charge:        -2.98023e-07
##########                     HBond_Acceptors:                   5
##########                        HBond_Donors:                   2
##########                         Heavy_Atoms:                  23
##########                          Grid_Score:          -31.347330
##########                     Grid_vdw_energy:          -32.011204
##########                      Grid_es_energy:            0.663873
##########           Internal_energy_repulsive:           13.052921

@<TRIPOS>MOLECULE
ZINC000573150059
 43 44 1 0 0
SMALL
USER_CHARGES


@<TRIPOS>ATOM
      1 C1         -7.6554   -0.1064   63.9441 C.3     1  ZINC000573150059    0.0300
      2 O2         -7.6711   -0.3872   62.5431 O.3     1  ZINC000573150059   -0.3600
      3 C3         -8.8636    0.0356   61.8789 C.3     1  ZINC000573150059    0.0700
      4 H4         -9.7330   -0.3231   62.4297 H       1  ZINC000573150059    0.0900
      5 C5         -8.8964    1.5639   61.8133 C.3     1  ZINC000573150059   -0.1700
      6 C6         -8.8868   -0.5278   60.4813 C.2     1  ZINC000573150059    0.5100
      7 O7         -7.8511   -0.6637   59.8650 O.2     1  ZINC000573150059   -0.4900
      8 N8        -10.0584   -0.8805   59.9164 N.am    1  ZINC000573150059   -0.6700
      9 C9        -10.0799   -1.4036   58.6188 C.ar    1  ZINC000573150059    0.1900
     10 C10       -10.5003   -2.7099   58.4027 C.ar    1  ZINC000573150059   -0.2000
     11 C11       -10.5219   -3.2275   57.1216 C.ar    1  ZINC000573150059   -0.0500
     12 C12       -10.1265   -2.4483   56.0519 C.ar    1  ZINC000573150059   -0.2200
     13 C13        -9.7053   -1.1405   56.2612 C.ar    1  ZINC000573150059    0.2400
     14 N14        -9.3060   -0.3530   55.1790 N.pl3   1  ZINC000573150059   -0.7300
     15 C15        -9.5802   -0.7961   53.8099 C.3     1  ZINC000573150059    0.2000
     16 H16        -9.3402   -1.8552   53.7159 H       1  ZINC000573150059    0.1000
     17 C17       -11.0605   -0.5781   53.4901 C.3     1  ZINC000573150059   -0.1700
     18 C18        -8.7360   -0.0023   52.8464 C.ar    1  ZINC000573150059    0.1400
     19 C19        -7.6801   -0.6151   52.1988 C.ar    1  ZINC000573150059   -0.1600
     20 C20        -6.9096    0.1236   51.3139 C.ar    1  ZINC000573150059   -0.0400
     21 C21        -7.2318    1.4577   51.1128 C.ar    1  ZINC000573150059   -0.1500
     22 Br22       -6.2195    2.5179   49.9181 Br      1  ZINC000573150059   -0.0300
     23 C23        -8.3034    2.0024   51.7970 C.ar    1  ZINC000573150059    0.1400
     24 N24        -9.0169    1.2675   52.6273 N.ar    1  ZINC000573150059   -0.4700
     25 C25        -9.6869   -0.6164   57.5459 C.ar    1  ZINC000573150059   -0.1900
     26 H26        -7.7468    0.9685   64.1003 H       1  ZINC000573150059    0.0500
     27 H27        -8.4900   -0.6157   64.4261 H       1  ZINC000573150059    0.0400
     28 H28        -6.7178   -0.4577   64.3747 H       1  ZINC000573150059    0.0900
     29 H29        -8.0269    1.9226   61.2625 H       1  ZINC000573150059    0.0700
     30 H30        -9.8059    1.8864   61.3066 H       1  ZINC000573150059    0.0700
     31 H31        -8.8796    1.9714   62.8240 H       1  ZINC000573150059    0.0700
     32 H32       -10.8867   -0.7719   60.4093 H       1  ZINC000573150059    0.4100
     33 H33       -10.8101   -3.3218   59.2370 H       1  ZINC000573150059    0.1200
     34 H34       -10.8486   -4.2437   56.9566 H       1  ZINC000573150059    0.1300
     35 H35       -10.1443   -2.8559   55.0519 H       1  ZINC000573150059    0.1200
     36 H36        -8.8470    0.4875   55.3340 H       1  ZINC000573150059    0.4100
     37 H37       -11.3004    0.4809   53.5841 H       1  ZINC000573150059    0.0600
     38 H38       -11.2644   -0.9079   52.4714 H       1  ZINC000573150059    0.0700
     39 H39       -11.6711   -1.1523   54.1870 H       1  ZINC000573150059    0.0700
     40 H40        -7.4578   -1.6563   52.3799 H       1  ZINC000573150059    0.1500
     41 H41        -6.0781   -0.3289   50.7939 H       1  ZINC000573150059    0.1500
     42 H42        -8.5610    3.0403   51.6466 H       1  ZINC000573150059    0.1700
     43 H43        -9.3605    0.3997   57.7113 H       1  ZINC000573150059    0.1400
@<TRIPOS>BOND
     1     1     2    1
     2     1    26    1
     3     1    27    1
     4     1    28    1
     5     2     3    1
     6     3     4    1
     7     3     5    1
     8     3     6    1
     9     5    29    1
    10     5    30    1
    11     5    31    1
    12     6     7    2
    13     6     8   am
    14     8     9    1
    15     8    32    1
    16     9    25   ar
    17     9    10   ar
    18    10    11   ar
    19    10    33    1
    20    11    12   ar
    21    11    34    1
    22    12    13   ar
    23    12    35    1
    24    13    14    1
    25    13    25   ar
    26    14    15    1
    27    14    36    1
    28    15    16    1
    29    15    17    1
    30    15    18    1
    31    17    37    1
    32    17    38    1
    33    17    39    1
    34    18    24   ar
    35    18    19   ar
    36    19    20   ar
    37    19    40    1
    38    20    21   ar
    39    20    41    1
    40    21    22    1
    41    21    23   ar
    42    23    24   ar
    43    23    42    1
    44    25    43    1
@<TRIPOS>SUBSTRUCTURE
     1 ZINC000573150059        1 TEMP              0 ****  ****    0 ROOT


##########                                Name:    ZINC000643274279
##########                DOCK_Rotatable_Bonds:                   6
##########                         Heavy_Atoms:                  29
##########                    Molecular_Weight:             392.454
##########                DOCK_Rotatable_Bonds:                   6
##########                       Formal_Charge:         -0.00999939
##########                     HBond_Acceptors:                   6
##########                        HBond_Donors:                   2
##########                         Heavy_Atoms:                  29
##########                          Grid_Score:          -31.332399
##########                     Grid_vdw_energy:          -31.137951
##########                      Grid_es_energy:           -0.194448
##########           Internal_energy_repulsive:            9.290442

@<TRIPOS>MOLECULE
ZINC000643274279
 53 56 1 0 0
SMALL
USER_CHARGES


@<TRIPOS>ATOM
      1 O1         -9.3362    1.0458   56.6353 O.2     1  ZINC000643274279   -0.4900
      2 C2        -10.4818    0.6637   56.5128 C.2     1  ZINC000643274279    0.5100
      3 N3        -11.0899    0.7310   55.3119 N.am    1  ZINC000643274279   -0.6400
      4 C4        -10.4033    1.2462   54.2089 C.ar    1  ZINC000643274279    0.1300
      5 C5        -10.5781    2.5760   53.8422 C.ar    1  ZINC000643274279   -0.1000
      6 C6         -9.9115    3.0920   52.7442 C.ar    1  ZINC000643274279   -0.1000
      7 C7         -9.0719    2.2841   52.0096 C.ar    1  ZINC000643274279   -0.0600
      8 C8         -8.3935    2.8266   50.7639 C.3     1  ZINC000643274279   -0.0900
      9 C9         -6.8916    2.9176   51.0088 C.3     1  ZINC000643274279   -0.1200
     10 C10        -6.1916    1.6101   50.6704 C.3     1  ZINC000643274279   -0.1100
     11 C11        -6.4657    0.4931   51.6455 C.3     1  ZINC000643274279   -0.1600
     12 C12        -7.9345    0.1183   51.6094 C.2     1  ZINC000643274279    0.4100
     13 O13        -8.3249   -0.8348   50.9696 O.2     1  ZINC000643274279   -0.4400
     14 C14        -8.8696    0.9552   52.3815 C.ar    1  ZINC000643274279   -0.1300
     15 C15        -9.5444    0.4313   53.4859 C.ar    1  ZINC000643274279   -0.1000
     16 C16       -11.2154    0.1132   57.6916 C.2     1  ZINC000643274279    0.5200
     17 O17       -12.2893    0.5802   58.0101 O.2     1  ZINC000643274279   -0.5000
     18 N18       -10.6847   -0.9021   58.4014 N.am    1  ZINC000643274279   -0.5800
     19 C19        -9.3947   -1.5606   58.1266 C.3     1  ZINC000643274279    0.0900
     20 C20        -8.9598   -2.1636   59.4857 C.3     1  ZINC000643274279   -0.1400
     21 C21       -10.3204   -2.6253   60.0713 C.3     1  ZINC000643274279   -0.1200
     22 C22       -11.2936   -1.5322   59.5821 C.3     1  ZINC000643274279    0.1800
     23 H23       -11.4444   -0.7915   60.3674 H       1  ZINC000643274279    0.0900
     24 C24       -12.6134   -2.1533   59.2035 C.ar    1  ZINC000643274279   -0.1000
     25 C25       -12.7768   -2.7180   57.9521 C.ar    1  ZINC000643274279   -0.0900
     26 C26       -13.9857   -3.2880   57.6026 C.ar    1  ZINC000643274279   -0.1400
     27 C27       -15.0362   -3.2939   58.5088 C.ar    1  ZINC000643274279    0.1100
     28 O28       -16.2262   -3.8543   58.1675 O.3     1  ZINC000643274279   -0.5000
     29 C29       -14.8696   -2.7270   59.7640 C.ar    1  ZINC000643274279   -0.1400
     30 C30       -13.6572   -2.1626   60.1103 C.ar    1  ZINC000643274279   -0.0900
     31 H31       -12.0040    0.4220   55.2132 H       1  ZINC000643274279    0.4200
     32 H32       -11.2378    3.2095   54.4167 H       1  ZINC000643274279    0.1400
     33 H33       -10.0497    4.1257   52.4639 H       1  ZINC000643274279    0.1400
     34 H34        -8.5855    2.1583   49.9245 H       1  ZINC000643274279    0.0800
     35 H35        -8.7863    3.8180   50.5380 H       1  ZINC000643274279    0.0800
     36 H36        -6.4774    3.7140   50.3903 H       1  ZINC000643274279    0.0800
     37 H37        -6.7155    3.1549   52.0580 H       1  ZINC000643274279    0.0700
     38 H38        -6.5130    1.2913   49.6788 H       1  ZINC000643274279    0.0700
     39 H39        -5.1168    1.7895   50.6418 H       1  ZINC000643274279    0.0800
     40 H40        -5.8643   -0.3758   51.3782 H       1  ZINC000643274279    0.0900
     41 H41        -6.2001    0.8183   52.6515 H       1  ZINC000643274279    0.0900
     42 H42        -9.4019   -0.6002   53.7723 H       1  ZINC000643274279    0.1300
     43 H43        -9.5217   -2.3492   57.3850 H       1  ZINC000643274279    0.0800
     44 H44        -8.6616   -0.8305   57.7835 H       1  ZINC000643274279    0.1000
     45 H45        -8.2892   -3.0105   59.3407 H       1  ZINC000643274279    0.0900
     46 H46        -8.4985   -1.4061   60.1194 H       1  ZINC000643274279    0.0800
     47 H47       -10.5997   -3.6012   59.6745 H       1  ZINC000643274279    0.0800
     48 H48       -10.2841   -2.6466   61.1605 H       1  ZINC000643274279    0.0900
     49 H49       -11.9588   -2.7132   57.2470 H       1  ZINC000643274279    0.1200
     50 H50       -14.1130   -3.7283   56.6247 H       1  ZINC000643274279    0.1300
     51 H51       -16.2442   -4.2267   57.2753 H       1  ZINC000643274279    0.3900
     52 H52       -15.6860   -2.7300   60.4710 H       1  ZINC000643274279    0.1300
     53 H53       -13.5269   -1.7215   61.0874 H       1  ZINC000643274279    0.1300
@<TRIPOS>BOND
     1     1     2    2
     2     2     3   am
     3     2    16    1
     4     3     4    1
     5     3    31    1
     6     4    15   ar
     7     4     5   ar
     8     5     6   ar
     9     5    32    1
    10     6     7   ar
    11     6    33    1
    12     7    14   ar
    13     7     8    1
    14     8     9    1
    15     8    34    1
    16     8    35    1
    17     9    10    1
    18     9    36    1
    19     9    37    1
    20    10    11    1
    21    10    38    1
    22    10    39    1
    23    11    12    1
    24    11    40    1
    25    11    41    1
    26    12    13    2
    27    12    14    1
    28    14    15   ar
    29    15    42    1
    30    16    17    2
    31    16    18   am
    32    18    22    1
    33    18    19    1
    34    19    20    1
    35    19    43    1
    36    19    44    1
    37    20    21    1
    38    20    45    1
    39    20    46    1
    40    21    22    1
    41    21    47    1
    42    21    48    1
    43    22    23    1
    44    22    24    1
    45    24    30   ar
    46    24    25   ar
    47    25    26   ar
    48    25    49    1
    49    26    27   ar
    50    26    50    1
    51    27    28    1
    52    27    29   ar
    53    28    51    1
    54    29    30   ar
    55    29    52    1
    56    30    53    1
@<TRIPOS>SUBSTRUCTURE
     1 ZINC000643274279        1 TEMP              0 ****  ****    0 ROOT


##########                                Name:    ZINC000854704989
##########                DOCK_Rotatable_Bonds:                   5
##########                         Heavy_Atoms:                  22
##########                    Molecular_Weight:             365.227
##########                DOCK_Rotatable_Bonds:                   5
##########                       Formal_Charge:        -1.78814e-07
##########                     HBond_Acceptors:                   5
##########                        HBond_Donors:                   1
##########                         Heavy_Atoms:                  22
##########                          Grid_Score:          -31.327940
##########                     Grid_vdw_energy:          -30.974970
##########                      Grid_es_energy:           -0.352969
##########           Internal_energy_repulsive:            6.920467

@<TRIPOS>MOLECULE
ZINC000854704989
 39 41 1 0 0
SMALL
USER_CHARGES


@<TRIPOS>ATOM
      1 O1         -3.2884    2.6936   50.8801 O.2     1  ZINC000854704989   -0.5300
      2 C2         -3.3109    1.9315   49.9334 C.2     1  ZINC000854704989    0.5700
      3 N3         -4.4735    1.6764   49.3012 N.am    1  ZINC000854704989   -0.7300
      4 C4         -5.7112    2.3128   49.7588 C.3     1  ZINC000854704989    0.2000
      5 C5         -6.4312    1.3879   50.7059 C.2     1  ZINC000854704989   -0.0500
      6 C6         -7.7695    1.3017   50.8938 C.2     1  ZINC000854704989   -0.1700
      7 C7         -7.9125    0.2934   51.8760 C.2     1  ZINC000854704989    0.0000
      8 Br8        -9.5308   -0.3452   52.6171 Br      1  ZINC000854704989    0.0600
      9 N9         -6.7082   -0.1079   52.1681 N.2     1  ZINC000854704989   -0.3200
     10 O10        -5.8735    0.4843   51.5241 O.3     1  ZINC000854704989    0.1300
     11 C11        -2.0619    1.2892   49.4715 C.ar    1  ZINC000854704989   -0.1300
     12 C12        -2.1146    0.1957   48.6060 C.ar    1  ZINC000854704989   -0.0900
     13 C13        -0.9452   -0.3987   48.1784 C.ar    1  ZINC000854704989   -0.1200
     14 C14         0.2776    0.0865   48.6062 C.ar    1  ZINC000854704989   -0.0900
     15 C15         0.3369    1.1705   49.4645 C.ar    1  ZINC000854704989   -0.0800
     16 C16         1.6735    1.6924   49.9252 C.3     1  ZINC000854704989   -0.0800
     17 H17         2.4706    1.1655   49.4008 H       1  ZINC000854704989    0.0900
     18 C18         1.8180    1.4688   51.4336 C.3     1  ZINC000854704989   -0.1100
     19 C19         3.1452    2.0725   51.9032 C.3     1  ZINC000854704989   -0.1600
     20 C20         3.1823    3.5567   51.5296 C.3     1  ZINC000854704989    0.0600
     21 O21         3.0117    3.6955   50.1176 O.3     1  ZINC000854704989   -0.3800
     22 C22         1.7681    3.1909   49.6265 C.3     1  ZINC000854704989    0.0700
     23 C23        -0.8245    1.7775   49.8948 C.ar    1  ZINC000854704989   -0.0500
     24 H24        -4.4908    1.0713   48.5433 H       1  ZINC000854704989    0.4000
     25 H25        -5.4726    3.2444   50.2718 H       1  ZINC000854704989    0.1100
     26 H26        -6.3499    2.5236   48.9011 H       1  ZINC000854704989    0.1000
     27 H27        -8.5475    1.8710   50.4070 H       1  ZINC000854704989    0.1900
     28 H28        -3.0687   -0.1844   48.2719 H       1  ZINC000854704989    0.1200
     29 H29        -0.9847   -1.2449   47.5086 H       1  ZINC000854704989    0.1300
     30 H30         1.1900   -0.3828   48.2690 H       1  ZINC000854704989    0.1300
     31 H31         0.9923    1.9534   51.9548 H       1  ZINC000854704989    0.0700
     32 H32         1.8081    0.3999   51.6465 H       1  ZINC000854704989    0.0700
     33 H33         3.2310    1.9669   52.9847 H       1  ZINC000854704989    0.0800
     34 H34         3.9727    1.5541   51.4189 H       1  ZINC000854704989    0.0700
     35 H35         2.3789    4.0817   52.0463 H       1  ZINC000854704989    0.0500
     36 H36         4.1422    3.9815   51.8233 H       1  ZINC000854704989    0.1000
     37 H37         1.7097    3.3530   48.5503 H       1  ZINC000854704989    0.1000
     38 H38         0.9454    3.7106   50.1178 H       1  ZINC000854704989    0.0500
     39 H39        -0.7769    2.6237   50.5643 H       1  ZINC000854704989    0.1400
@<TRIPOS>BOND
     1     1     2    2
     2     2     3   am
     3     2    11    1
     4     3     4    1
     5     3    24    1
     6     4     5    1
     7     4    25    1
     8     4    26    1
     9     5    10    1
    10     5     6    2
    11     6     7    1
    12     6    27    1
    13     7     8    1
    14     7     9    2
    15     9    10    1
    16    11    23   ar
    17    11    12   ar
    18    12    13   ar
    19    12    28    1
    20    13    14   ar
    21    13    29    1
    22    14    15   ar
    23    14    30    1
    24    15    16    1
    25    15    23   ar
    26    16    17    1
    27    16    22    1
    28    16    18    1
    29    18    19    1
    30    18    31    1
    31    18    32    1
    32    19    20    1
    33    19    33    1
    34    19    34    1
    35    20    21    1
    36    20    35    1
    37    20    36    1
    38    21    22    1
    39    22    37    1
    40    22    38    1
    41    23    39    1
@<TRIPOS>SUBSTRUCTURE
     1 ZINC000854704989        1 TEMP              0 ****  ****    0 ROOT


##########                                Name:    ZINC000847397179
##########                DOCK_Rotatable_Bonds:                   9
##########                         Heavy_Atoms:                  25
##########                    Molecular_Weight:             350.461
##########                DOCK_Rotatable_Bonds:                   9
##########                       Formal_Charge:          0.00999979
##########                     HBond_Acceptors:                   7
##########                        HBond_Donors:                   2
##########                         Heavy_Atoms:                  25
##########                          Grid_Score:          -31.319942
##########                     Grid_vdw_energy:          -30.951792
##########                      Grid_es_energy:           -0.368150
##########           Internal_energy_repulsive:           88.631378

@<TRIPOS>MOLECULE
ZINC000847397179
 55 56 1 0 0
SMALL
USER_CHARGES


@<TRIPOS>ATOM
      1 C1         -8.7063   -0.6264   60.7145 C.3     1  ZINC000847397179   -0.1500
      2 C2         -9.5798    0.0757   59.6730 C.3     1  ZINC000847397179   -0.1000
      3 H3         -9.8165    1.0826   60.0166 H       1  ZINC000847397179    0.0900
      4 C4        -10.8754   -0.7143   59.4778 C.3     1  ZINC000847397179   -0.0200
      5 C5        -10.5623   -2.0434   58.8405 C.2     1  ZINC000847397179    0.0100
      6 C6        -10.5133   -2.2952   57.5185 C.2     1  ZINC000847397179   -0.0500
      7 N7        -10.1962   -3.6195   57.3790 N.pl3   1  ZINC000847397179   -0.5700
      8 C8        -10.0623   -4.1311   58.6214 C.2     1  ZINC000847397179    0.1800
      9 N9        -10.2778   -3.1817   59.4904 N.2     1  ZINC000847397179   -0.4900
     10 C10        -8.8367    0.1531   58.3642 C.2     1  ZINC000847397179    0.5200
     11 O11        -7.7784   -0.4244   58.2327 O.2     1  ZINC000847397179   -0.5300
     12 N12        -9.3483    0.8641   57.3398 N.am    1  ZINC000847397179   -0.7400
     13 C13        -8.6250    0.9408   56.0681 C.3     1  ZINC000847397179    0.1200
     14 C14        -8.1233    2.3700   55.8522 C.3     1  ZINC000847397179    0.1500
     15 H15        -8.9729    3.0384   55.7131 H       1  ZINC000847397179    0.0800
     16 C16        -7.3109    2.8187   57.0709 C.3     1  ZINC000847397179   -0.1300
     17 C17        -6.6964    4.1923   56.7920 C.3     1  ZINC000847397179   -0.1200
     18 C18        -5.7527    4.0964   55.5910 C.3     1  ZINC000847397179   -0.1400
     19 C19        -6.5474    3.6622   54.3554 C.3     1  ZINC000847397179    0.1100
     20 N20        -7.2614    2.4150   54.6631 N.am    1  ZINC000847397179   -0.5900
     21 C21        -7.1241    1.3322   53.8726 C.2     1  ZINC000847397179    0.6500
     22 O22        -7.7198    0.3069   54.1377 O.2     1  ZINC000847397179   -0.5500
     23 O23        -6.3269    1.3865   52.7890 O.3     1  ZINC000847397179   -0.3600
     24 C24        -6.9721    1.3034   51.4909 C.3     1  ZINC000847397179    0.1400
     25 C25        -6.0485    1.8936   50.4235 C.3     1  ZINC000847397179   -0.1800
     26 C26        -7.2642   -0.1614   51.1594 C.3     1  ZINC000847397179   -0.1400
     27 C27        -8.2838    2.0906   51.5222 C.3     1  ZINC000847397179   -0.1800
     28 H28        -8.4696   -1.6334   60.3710 H       1  ZINC000847397179    0.0500
     29 H29        -7.7833   -0.0636   60.8536 H       1  ZINC000847397179    0.0500
     30 H30        -9.2438   -0.6825   61.6612 H       1  ZINC000847397179    0.1000
     31 H31       -11.3504   -0.8781   60.4452 H       1  ZINC000847397179    0.0800
     32 H32       -11.5502   -0.1519   58.8325 H       1  ZINC000847397179    0.0800
     33 H33       -10.6906   -1.5883   56.7214 H       1  ZINC000847397179    0.1800
     34 H34       -10.0879   -4.1005   56.5436 H       1  ZINC000847397179    0.4200
     35 H35        -9.8140   -5.1556   58.8570 H       1  ZINC000847397179    0.2100
     36 H36       -10.1953    1.3250   57.4447 H       1  ZINC000847397179    0.3900
     37 H37        -7.7764    0.2573   56.0910 H       1  ZINC000847397179    0.0800
     38 H38        -9.2933    0.6633   55.2529 H       1  ZINC000847397179    0.1000
     39 H39        -7.9649    2.8826   57.9407 H       1  ZINC000847397179    0.0800
     40 H40        -6.5168    2.0975   57.2645 H       1  ZINC000847397179    0.0700
     41 H41        -7.4896    4.9074   56.5742 H       1  ZINC000847397179    0.0700
     42 H42        -6.1381    4.5248   57.6670 H       1  ZINC000847397179    0.0700
     43 H43        -5.2975    5.0696   55.4073 H       1  ZINC000847397179    0.0800
     44 H44        -4.9733    3.3631   55.7984 H       1  ZINC000847397179    0.0700
     45 H45        -7.2671    4.4375   54.0929 H       1  ZINC000847397179    0.0700
     46 H46        -5.8650    3.4965   53.5217 H       1  ZINC000847397179    0.0900
     47 H47        -5.1140    1.3329   50.4012 H       1  ZINC000847397179    0.0600
     48 H48        -6.5329    1.8313   49.4490 H       1  ZINC000847397179    0.0700
     49 H49        -5.8404    2.9372   50.6597 H       1  ZINC000847397179    0.0900
     50 H50        -7.9223   -0.5818   51.9198 H       1  ZINC000847397179    0.0700
     51 H51        -7.7486   -0.2237   50.1849 H       1  ZINC000847397179    0.0800
     52 H52        -6.3298   -0.7221   51.1371 H       1  ZINC000847397179    0.0700
     53 H53        -8.0757    3.1342   51.7583 H       1  ZINC000847397179    0.0900
     54 H54        -8.7682    2.0283   50.5477 H       1  ZINC000847397179    0.0700
     55 H55        -8.9418    1.6701   52.2826 H       1  ZINC000847397179    0.0600
@<TRIPOS>BOND
     1     1     2    1
     2     1    28    1
     3     1    29    1
     4     1    30    1
     5     2     3    1
     6     2     4    1
     7     2    10    1
     8     4     5    1
     9     4    31    1
    10     4    32    1
    11     5     9    1
    12     5     6    2
    13     6     7    1
    14     6    33    1
    15     7     8    1
    16     7    34    1
    17     8     9    2
    18     8    35    1
    19    10    11    2
    20    10    12   am
    21    12    13    1
    22    12    36    1
    23    13    14    1
    24    13    37    1
    25    13    38    1
    26    14    15    1
    27    14    20    1
    28    14    16    1
    29    16    17    1
    30    16    39    1
    31    16    40    1
    32    17    18    1
    33    17    41    1
    34    17    42    1
    35    18    19    1
    36    18    43    1
    37    18    44    1
    38    19    20    1
    39    19    45    1
    40    19    46    1
    41    20    21   am
    42    21    22    2
    43    21    23    1
    44    23    24    1
    45    24    25    1
    46    24    26    1
    47    24    27    1
    48    25    47    1
    49    25    48    1
    50    25    49    1
    51    26    50    1
    52    26    51    1
    53    26    52    1
    54    27    53    1
    55    27    54    1
    56    27    55    1
@<TRIPOS>SUBSTRUCTURE
     1 ZINC000847397179        1 TEMP              0 ****  ****    0 ROOT


##########                                Name:    ZINC001079355651
##########                DOCK_Rotatable_Bonds:                   5
##########                         Heavy_Atoms:                  25
##########                    Molecular_Weight:             353.851
##########                DOCK_Rotatable_Bonds:                   5
##########                       Formal_Charge:           0.0199997
##########                     HBond_Acceptors:                   5
##########                        HBond_Donors:                   1
##########                         Heavy_Atoms:                  25
##########                          Grid_Score:          -31.318172
##########                     Grid_vdw_energy:          -30.578180
##########                      Grid_es_energy:           -0.739993
##########           Internal_energy_repulsive:            4.940144

@<TRIPOS>MOLECULE
ZINC001079355651
 45 47 1 0 0
SMALL
USER_CHARGES


@<TRIPOS>ATOM
      1 C1         -9.9869    0.1066   52.3361 C.3     1  ZINC001079355651   -0.1500
      2 C2         -8.9273    1.1951   52.5190 C.3     1  ZINC001079355651   -0.1000
      3 H3         -9.2968    1.9739   53.1859 H       1  ZINC001079355651    0.0900
      4 C4         -8.5381    1.7993   51.1527 C.3     1  ZINC001079355651    0.0300
      5 N5         -7.0777    2.0514   51.2572 N.3     1  ZINC001079355651   -0.5100
      6 C6         -6.4643    2.1522   49.9263 C.3     1  ZINC001079355651    0.1600
      7 C7         -5.0029    2.2592   50.0664 C.1     1  ZINC001079355651   -0.1400
      8 C8         -3.8374    2.3444   50.1782 C.1     1  ZINC001079355651   -0.1300
      9 C9         -2.4157    2.4483   50.3145 C.ar    1  ZINC001079355651    0.0300
     10 C10        -1.8607    3.4314   51.1344 C.ar    1  ZINC001079355651   -0.0900
     11 C11        -0.4899    3.5270   51.2619 C.ar    1  ZINC001079355651   -0.1000
     12 C12         0.3342    2.6508   50.5792 C.ar    1  ZINC001079355651   -0.1000
     13 C13        -0.2098    1.6730   49.7633 C.ar    1  ZINC001079355651   -0.0300
     14 Cl14        0.8326    0.5782   48.9098 Cl      1  ZINC001079355651   -0.0600
     15 C15        -1.5799    1.5633   49.6323 C.ar    1  ZINC001079355651   -0.0900
     16 C16        -6.5560    0.8730   51.9961 C.3     1  ZINC001079355651    0.0200
     17 C17        -7.6242    0.5861   53.0763 C.3     1  ZINC001079355651    0.1500
     18 H18        -7.7394   -0.4884   53.2189 H       1  ZINC001079355651    0.1000
     19 N19        -7.2558    1.2296   54.3399 N.am    1  ZINC001079355651   -0.7100
     20 C20        -7.7679    0.7763   55.5013 C.2     1  ZINC001079355651    0.5600
     21 O21        -8.5340   -0.1669   55.5005 O.2     1  ZINC001079355651   -0.5300
     22 C22        -7.3967    1.4281   56.7789 C.ar    1  ZINC001079355651   -0.0900
     23 C23        -7.8870    0.9507   57.9981 C.ar    1  ZINC001079355651   -0.1400
     24 C24        -7.5151    1.5888   59.1656 C.ar    1  ZINC001079355651    0.1000
     25 N25        -6.7106    2.6327   59.1397 N.ar    1  ZINC001079355651   -0.4700
     26 C26        -6.2262    3.1146   58.0125 C.ar    1  ZINC001079355651    0.1000
     27 C27        -6.5417    2.5341   56.7993 C.ar    1  ZINC001079355651   -0.1200
     28 H28       -10.2146   -0.3447   53.3018 H       1  ZINC001079355651    0.0600
     29 H29       -10.8921    0.5472   51.9184 H       1  ZINC001079355651    0.0700
     30 H30        -9.6087   -0.6583   51.6578 H       1  ZINC001079355651    0.0600
     31 H31        -8.7451    1.0907   50.3508 H       1  ZINC001079355651    0.0600
     32 H32        -9.0740    2.7334   50.9836 H       1  ZINC001079355651    0.0900
     33 H33        -6.7095    1.2634   49.3449 H       1  ZINC001079355651    0.0700
     34 H34        -6.8461    3.0367   49.4163 H       1  ZINC001079355651    0.1100
     35 H35        -2.5027    4.1167   51.6679 H       1  ZINC001079355651    0.1300
     36 H36        -0.0596    4.2879   51.8960 H       1  ZINC001079355651    0.1400
     37 H37         1.4063    2.7299   50.6823 H       1  ZINC001079355651    0.1400
     38 H38        -2.0035    0.8004   48.9960 H       1  ZINC001079355651    0.1400
     39 H39        -6.4527    0.0194   51.3262 H       1  ZINC001079355651    0.0600
     40 H40        -5.5993    1.1096   52.4621 H       1  ZINC001079355651    0.0900
     41 H41        -6.6433    1.9817   54.3407 H       1  ZINC001079355651    0.4000
     42 H42        -8.5467    0.0961   58.0268 H       1  ZINC001079355651    0.1400
     43 H43        -7.8889    1.2277   60.1123 H       1  ZINC001079355651    0.1600
     44 H44        -5.5704    3.9723   58.0382 H       1  ZINC001079355651    0.1700
     45 H45        -6.1411    2.9344   55.8796 H       1  ZINC001079355651    0.1500
@<TRIPOS>BOND
     1     1     2    1
     2     1    28    1
     3     1    29    1
     4     1    30    1
     5     2     3    1
     6     2    17    1
     7     2     4    1
     8     4     5    1
     9     4    31    1
    10     4    32    1
    11     5     6    1
    12     5    16    1
    13     6     7    1
    14     6    33    1
    15     6    34    1
    16     7     8    3
    17     8     9    1
    18     9    15   ar
    19     9    10   ar
    20    10    11   ar
    21    10    35    1
    22    11    12   ar
    23    11    36    1
    24    12    13   ar
    25    12    37    1
    26    13    14    1
    27    13    15   ar
    28    15    38    1
    29    16    17    1
    30    16    39    1
    31    16    40    1
    32    17    18    1
    33    17    19    1
    34    19    20   am
    35    19    41    1
    36    20    21    2
    37    20    22    1
    38    22    27   ar
    39    22    23   ar
    40    23    24   ar
    41    23    42    1
    42    24    25   ar
    43    24    43    1
    44    25    26   ar
    45    26    27   ar
    46    26    44    1
    47    27    45    1
@<TRIPOS>SUBSTRUCTURE
     1 ZINC001079355651        1 TEMP              0 ****  ****    0 ROOT


##########                                Name:    ZINC000501032137
##########                DOCK_Rotatable_Bonds:                  10
##########                         Heavy_Atoms:                  25
##########                    Molecular_Weight:             407.307
##########                DOCK_Rotatable_Bonds:                  10
##########                       Formal_Charge:           0.0099998
##########                     HBond_Acceptors:                   5
##########                        HBond_Donors:                   1
##########                         Heavy_Atoms:                  25
##########                          Grid_Score:          -31.313093
##########                     Grid_vdw_energy:          -30.192789
##########                      Grid_es_energy:           -1.120305
##########           Internal_energy_repulsive:           14.059045

@<TRIPOS>MOLECULE
ZINC000501032137
 48 50 1 0 0
SMALL
USER_CHARGES


@<TRIPOS>ATOM
      1 C1         -8.5749    2.8550   64.7469 C.3     1  ZINC000501032137   -0.1500
      2 C2         -9.0612    1.5263   65.3292 C.3     1  ZINC000501032137   -0.1200
      3 C3         -8.1774    0.3892   64.8127 C.3     1  ZINC000501032137    0.0600
      4 O4         -8.8347   -0.2703   63.7289 O.3     1  ZINC000501032137   -0.3800
      5 C5         -8.2677    0.0108   62.4477 C.3     1  ZINC000501032137    0.0500
      6 C6         -9.1631   -0.5750   61.3540 C.3     1  ZINC000501032137    0.1600
      7 H7         -9.3488   -1.6287   61.5622 H       1  ZINC000501032137    0.1000
      8 C8         -8.4680   -0.4379   59.9980 C.3     1  ZINC000501032137   -0.0900
      9 C9         -9.0654   -1.4218   59.0254 C.ar    1  ZINC000501032137   -0.0600
     10 C10        -9.2043   -2.7496   59.3835 C.ar    1  ZINC000501032137   -0.0900
     11 C11        -9.7524   -3.6529   58.4916 C.ar    1  ZINC000501032137   -0.1100
     12 C12       -10.1615   -3.2285   57.2417 C.ar    1  ZINC000501032137   -0.0900
     13 C13       -10.0227   -1.8996   56.8829 C.ar    1  ZINC000501032137   -0.0800
     14 Br14      -10.5823   -1.3183   55.1726 Br      1  ZINC000501032137   -0.0600
     15 C15        -9.4796   -0.9953   57.7774 C.ar    1  ZINC000501032137   -0.0800
     16 N16       -10.4364    0.1489   61.3254 N.am    1  ZINC000501032137   -0.7100
     17 C17       -11.5847   -0.5163   61.0906 C.2     1  ZINC000501032137    0.6100
     18 O18       -11.5641   -1.7178   60.9039 O.2     1  ZINC000501032137   -0.5200
     19 C19       -12.8658    0.2124   61.0602 C.2     1  ZINC000501032137   -0.0800
     20 C20       -14.0878   -0.3122   60.7713 C.2     1  ZINC000501032137    0.0800
     21 C21       -14.3880   -1.7470   60.4217 C.3     1  ZINC000501032137   -0.0800
     22 C22       -15.4498   -2.0059   59.3509 C.3     1  ZINC000501032137   -0.1700
     23 C23       -13.9710   -2.2382   59.0339 C.3     1  ZINC000501032137   -0.1500
     24 O24       -14.9751    0.6917   60.8574 O.3     1  ZINC000501032137   -0.2000
     25 C25       -14.3134    1.8085   61.1918 C.2     1  ZINC000501032137    0.1800
     26 N26       -13.0498    1.5350   61.3215 N.2     1  ZINC000501032137   -0.4600
     27 H27        -7.5432    3.0296   65.0521 H       1  ZINC000501032137    0.0600
     28 H28        -8.6305    2.8170   63.6590 H       1  ZINC000501032137    0.0600
     29 H29        -9.2046    3.6651   65.1147 H       1  ZINC000501032137    0.0600
     30 H30        -9.0056    1.5644   66.4171 H       1  ZINC000501032137    0.0700
     31 H31       -10.0930    1.3518   65.0240 H       1  ZINC000501032137    0.0700
     32 H32        -7.2268    0.7960   64.4678 H       1  ZINC000501032137    0.0500
     33 H33        -7.9969   -0.3244   65.6167 H       1  ZINC000501032137    0.0500
     34 H34        -8.1893    1.0897   62.3138 H       1  ZINC000501032137    0.0700
     35 H35        -7.2757   -0.4364   62.3833 H       1  ZINC000501032137    0.0600
     36 H36        -8.6052    0.5752   59.6202 H       1  ZINC000501032137    0.0900
     37 H37        -7.4034   -0.6416   60.1131 H       1  ZINC000501032137    0.0800
     38 H38        -8.8844   -3.0817   60.3601 H       1  ZINC000501032137    0.1200
     39 H39        -9.8605   -4.6904   58.7717 H       1  ZINC000501032137    0.1300
     40 H40       -10.5894   -3.9342   56.5450 H       1  ZINC000501032137    0.1300
     41 H41        -9.3714    0.0423   57.4979 H       1  ZINC000501032137    0.1200
     42 H42       -10.4529    1.1071   61.4756 H       1  ZINC000501032137    0.4100
     43 H43       -14.3219   -2.4558   61.2472 H       1  ZINC000501032137    0.1500
     44 H44       -16.0826   -2.8852   59.4719 H       1  ZINC000501032137    0.1100
     45 H45       -15.9311   -1.1386   58.8993 H       1  ZINC000501032137    0.1000
     46 H46       -13.4796   -1.5234   58.3737 H       1  ZINC000501032137    0.1000
     47 H47       -13.6311   -3.2701   58.9463 H       1  ZINC000501032137    0.1100
     48 H48       -14.7605    2.7813   61.3343 H       1  ZINC000501032137    0.2500
@<TRIPOS>BOND
     1     1     2    1
     2     1    27    1
     3     1    28    1
     4     1    29    1
     5     2     3    1
     6     2    30    1
     7     2    31    1
     8     3     4    1
     9     3    32    1
    10     3    33    1
    11     4     5    1
    12     5     6    1
    13     5    34    1
    14     5    35    1
    15     6     7    1
    16     6     8    1
    17     6    16    1
    18     8     9    1
    19     8    36    1
    20     8    37    1
    21     9    15   ar
    22     9    10   ar
    23    10    11   ar
    24    10    38    1
    25    11    12   ar
    26    11    39    1
    27    12    13   ar
    28    12    40    1
    29    13    14    1
    30    13    15   ar
    31    15    41    1
    32    16    17   am
    33    16    42    1
    34    17    18    2
    35    17    19    1
    36    19    26    1
    37    19    20    2
    38    20    21    1
    39    20    24    1
    40    21    23    1
    41    21    22    1
    42    21    43    1
    43    22    23    1
    44    22    44    1
    45    22    45    1
    46    23    46    1
    47    23    47    1
    48    24    25    1
    49    25    26    2
    50    25    48    1
@<TRIPOS>SUBSTRUCTURE
     1 ZINC000501032137        1 TEMP              0 ****  ****    0 ROOT


##########                                Name:    ZINC000672622940
##########                DOCK_Rotatable_Bonds:                   7
##########                         Heavy_Atoms:                  30
##########                    Molecular_Weight:             416.523
##########                DOCK_Rotatable_Bonds:                   7
##########                       Formal_Charge:          -0.0100002
##########                     HBond_Acceptors:                   9
##########                        HBond_Donors:                   1
##########                         Heavy_Atoms:                  30
##########                          Grid_Score:          -31.311363
##########                     Grid_vdw_energy:          -31.333233
##########                      Grid_es_energy:            0.021870
##########           Internal_energy_repulsive:           24.232990

@<TRIPOS>MOLECULE
ZINC000672622940
 62 65 1 0 0
SMALL
USER_CHARGES


@<TRIPOS>ATOM
      1 C1         -9.1692    2.1586   65.3744 C.3     1  ZINC000672622940    0.0800
      2 N2         -8.5875    0.8438   65.0934 N.am    1  ZINC000672622940   -0.6200
      3 C3         -7.9837    0.0632   66.1762 C.3     1  ZINC000672622940    0.0700
      4 C4         -8.6079    0.3522   63.8386 C.2     1  ZINC000672622940    0.5200
      5 O5         -8.1277   -0.7370   63.6062 O.2     1  ZINC000672622940   -0.5300
      6 C6         -9.2274    1.1559   62.7245 C.3     1  ZINC000672622940   -0.1000
      7 H7        -10.1526    1.6120   63.0765 H       1  ZINC000672622940    0.1000
      8 C8         -8.2544    2.2513   62.2837 C.3     1  ZINC000672622940   -0.1300
      9 C9         -8.8833    3.0673   61.1526 C.3     1  ZINC000672622940   -0.1100
     10 C10        -9.1865    2.1477   59.9680 C.3     1  ZINC000672622940   -0.1300
     11 C11       -10.1596    1.0523   60.4088 C.3     1  ZINC000672622940    0.1400
     12 H12       -11.0849    1.5084   60.7608 H       1  ZINC000672622940    0.1000
     13 N13       -10.4500    0.1717   59.2745 N.am    1  ZINC000672622940   -0.6900
     14 C14       -11.4039    0.5111   58.3848 C.2     1  ZINC000672622940    0.5100
     15 O15       -12.0211    1.5468   58.5225 O.2     1  ZINC000672622940   -0.5100
     16 C16       -11.7013   -0.3880   57.2288 C.2     1  ZINC000672622940    0.5100
     17 O17       -12.1568   -1.4959   57.4231 O.2     1  ZINC000672622940   -0.5200
     18 N18       -11.4637    0.0316   55.9701 N.am    1  ZINC000672622940   -0.5800
     19 C19       -10.9068    1.3677   55.7191 C.3     1  ZINC000672622940    0.0700
     20 C20        -9.6564    1.2247   54.8455 C.3     1  ZINC000672622940   -0.1200
     21 C21       -10.0111    0.4433   53.5783 C.3     1  ZINC000672622940    0.0000
     22 C22        -8.7915    0.3300   52.7004 C.2     1  ZINC000672622940    0.2000
     23 N23        -8.1089   -0.7560   52.4606 N.2     1  ZINC000672622940   -0.2800
     24 N24        -7.1328   -0.4875   51.6680 N.2     1  ZINC000672622940   -0.2800
     25 C25        -7.1497    0.7837   51.3656 C.2     1  ZINC000672622940    0.1500
     26 C26        -6.4246    1.8395   50.5595 C.3     1  ZINC000672622940   -0.0400
     27 C27        -7.4284    3.0121   50.4772 C.3     1  ZINC000672622940   -0.1300
     28 C28        -8.2945    2.7757   51.7337 C.3     1  ZINC000672622940    0.1000
     29 N29        -8.2027    1.3365   52.0081 N.pl3   1  ZINC000672622940   -0.4900
     30 C30       -10.4969   -0.9570   53.9596 C.3     1  ZINC000672622940   -0.1200
     31 C31       -11.7509   -0.8409   54.8234 C.3     1  ZINC000672622940    0.1100
     32 C32        -9.5307    0.2363   61.5399 C.3     1  ZINC000672622940   -0.1100
     33 H33        -8.4050    2.9268   65.2563 H       1  ZINC000672622940    0.0600
     34 H34        -9.9873    2.3500   64.6800 H       1  ZINC000672622940    0.0800
     35 H35        -9.5482    2.1773   66.3963 H       1  ZINC000672622940    0.0700
     36 H36        -8.7425   -0.5724   66.6327 H       1  ZINC000672622940    0.0600
     37 H37        -7.1835   -0.5579   65.7738 H       1  ZINC000672622940    0.0800
     38 H38        -7.5761    0.7393   66.9278 H       1  ZINC000672622940    0.0700
     39 H39        -8.0383    2.9064   63.1276 H       1  ZINC000672622940    0.0800
     40 H40        -7.3290    1.7951   61.9316 H       1  ZINC000672622940    0.0700
     41 H41        -9.8086    3.5234   61.5046 H       1  ZINC000672622940    0.0700
     42 H42        -8.1900    3.8476   60.8386 H       1  ZINC000672622940    0.0700
     43 H43        -9.6346    2.7289   59.1621 H       1  ZINC000672622940    0.0700
     44 H44        -8.2613    1.6915   59.6160 H       1  ZINC000672622940    0.0700
     45 H45        -9.9558   -0.6555   59.1638 H       1  ZINC000672622940    0.4100
     46 H46       -11.6455    1.9803   55.2023 H       1  ZINC000672622940    0.0700
     47 H47       -10.6390    1.8359   56.6663 H       1  ZINC000672622940    0.1400
     48 H48        -9.2885    2.2136   54.5721 H       1  ZINC000672622940    0.0800
     49 H49        -8.8852    0.6892   55.3991 H       1  ZINC000672622940    0.0800
     50 H50       -10.8001    0.9665   53.0380 H       1  ZINC000672622940    0.0900
     51 H51        -5.5144    2.1520   51.0715 H       1  ZINC000672622940    0.1000
     52 H52        -6.1928    1.4653   49.5623 H       1  ZINC000672622940    0.1000
     53 H53        -6.9132    3.9710   50.5334 H       1  ZINC000672622940    0.1100
     54 H54        -8.0304    2.9470   49.5707 H       1  ZINC000672622940    0.0900
     55 H55        -7.9037    3.3495   52.5741 H       1  ZINC000672622940    0.1000
     56 H56        -9.3297    3.0534   51.5355 H       1  ZINC000672622940    0.1000
     57 H57       -10.7271   -1.5209   53.0556 H       1  ZINC000672622940    0.0800
     58 H58        -9.7176   -1.4718   54.5215 H       1  ZINC000672622940    0.0800
     59 H59       -12.0427   -1.8293   55.1786 H       1  ZINC000672622940    0.1000
     60 H60       -12.5605   -0.4079   54.2360 H       1  ZINC000672622940    0.0800
     61 H61        -8.6054   -0.2199   61.1879 H       1  ZINC000672622940    0.0800
     62 H62       -10.2239   -0.5441   61.8538 H       1  ZINC000672622940    0.0800
@<TRIPOS>BOND
     1     1     2    1
     2     1    33    1
     3     1    34    1
     4     1    35    1
     5     2     3    1
     6     2     4   am
     7     3    36    1
     8     3    37    1
     9     3    38    1
    10     4     5    2
    11     4     6    1
    12     6     7    1
    13     6    32    1
    14     6     8    1
    15     8     9    1
    16     8    39    1
    17     8    40    1
    18     9    10    1
    19     9    41    1
    20     9    42    1
    21    10    11    1
    22    10    43    1
    23    10    44    1
    24    11    12    1
    25    11    13    1
    26    11    32    1
    27    13    14   am
    28    13    45    1
    29    14    15    2
    30    14    16    1
    31    16    17    2
    32    16    18   am
    33    18    31    1
    34    18    19    1
    35    19    20    1
    36    19    46    1
    37    19    47    1
    38    20    21    1
    39    20    48    1
    40    20    49    1
    41    21    22    1
    42    21    30    1
    43    21    50    1
    44    22    29    1
    45    22    23    2
    46    23    24    1
    47    24    25    2
    48    25    29    1
    49    25    26    1
    50    26    27    1
    51    26    51    1
    52    26    52    1
    53    27    28    1
    54    27    53    1
    55    27    54    1
    56    28    29    1
    57    28    55    1
    58    28    56    1
    59    30    31    1
    60    30    57    1
    61    30    58    1
    62    31    59    1
    63    31    60    1
    64    32    61    1
    65    32    62    1
@<TRIPOS>SUBSTRUCTURE
     1 ZINC000672622940        1 TEMP              0 ****  ****    0 ROOT


##########                                Name:    ZINC000054627026
##########                DOCK_Rotatable_Bonds:                   5
##########                         Heavy_Atoms:                  28
##########                    Molecular_Weight:              370.37
##########                DOCK_Rotatable_Bonds:                   5
##########                       Formal_Charge:         6.85453e-07
##########                     HBond_Acceptors:                   8
##########                        HBond_Donors:                   2
##########                         Heavy_Atoms:                  28
##########                          Grid_Score:          -31.258135
##########                     Grid_vdw_energy:          -31.291315
##########                      Grid_es_energy:            0.033181
##########           Internal_energy_repulsive:            4.298829

@<TRIPOS>MOLECULE
ZINC000054627026
 42 46 1 0 0
SMALL
USER_CHARGES


@<TRIPOS>ATOM
      1 O1         -8.9195    1.7330   58.0754 O.2     1  ZINC000054627026   -0.5200
      2 C2         -9.1561    0.6172   57.6536 C.2     1  ZINC000054627026    0.6100
      3 N3         -9.5889   -0.3433   58.4942 N.am    1  ZINC000054627026   -0.6500
      4 C4         -9.7606   -0.0580   59.8544 C.ar    1  ZINC000054627026    0.1400
      5 C5        -11.0253    0.2686   60.3394 C.ar    1  ZINC000054627026   -0.0900
      6 C6        -11.2081    0.5512   61.6762 C.ar    1  ZINC000054627026   -0.0900
      7 C7        -10.1288    0.5112   62.5468 C.ar    1  ZINC000054627026    0.0500
      8 N8         -9.9858    0.7373   63.9048 N.pl3   1  ZINC000054627026   -0.5900
      9 C9         -8.6627    0.5469   64.2094 C.2     1  ZINC000054627026    0.3700
     10 C10        -8.0743    0.6860   65.5497 C.2     1  ZINC000054627026    0.0200
     11 C11        -6.8229    0.2915   65.9195 C.2     1  ZINC000054627026   -0.1200
     12 C12        -6.6822    0.6155   67.2810 C.2     1  ZINC000054627026   -0.2200
     13 C13        -7.8401    1.1858   67.6743 C.2     1  ZINC000054627026   -0.0100
     14 O14        -8.6759    1.2313   66.6258 O.3     1  ZINC000054627026   -0.1700
     15 N15        -8.0004    0.2209   63.1227 N.2     1  ZINC000054627026   -0.4600
     16 C16        -8.8483    0.1826   62.0664 C.ar    1  ZINC000054627026    0.0700
     17 C17        -8.6755   -0.1074   60.7094 C.ar    1  ZINC000054627026   -0.0900
     18 C18        -8.9752    0.3167   56.2210 C.2     1  ZINC000054627026   -0.1000
     19 C19        -8.1502    0.9867   55.3624 C.2     1  ZINC000054627026    0.1000
     20 N20        -8.2812    0.3962   54.1545 N.pl3   1  ZINC000054627026   -0.3100
     21 C21        -7.6192    0.7553   52.9718 C.ar    1  ZINC000054627026    0.1300
     22 C22        -6.6977    1.7936   52.9782 C.ar    1  ZINC000054627026   -0.1200
     23 C23        -6.0468    2.1448   51.8118 C.ar    1  ZINC000054627026   -0.1000
     24 C24        -6.3124    1.4636   50.6381 C.ar    1  ZINC000054627026   -0.1100
     25 C25        -7.2302    0.4292   50.6284 C.ar    1  ZINC000054627026   -0.1000
     26 C26        -7.8796    0.0695   51.7931 C.ar    1  ZINC000054627026   -0.1000
     27 N27        -9.2065   -0.6455   54.3117 N.2     1  ZINC000054627026   -0.0500
     28 N28        -9.5898   -0.6664   55.5406 N.2     1  ZINC000054627026   -0.2000
     29 H29        -9.7816   -1.2321   58.1570 H       1  ZINC000054627026    0.4200
     30 H30       -11.8673    0.3008   59.6638 H       1  ZINC000054627026    0.1500
     31 H31       -12.1911    0.8039   62.0456 H       1  ZINC000054627026    0.1300
     32 H32       -10.6897    0.9846   64.5246 H       1  ZINC000054627026    0.4300
     33 H33        -6.0830   -0.1794   65.2892 H       1  ZINC000054627026    0.1600
     34 H34        -5.8117    0.4404   67.8957 H       1  ZINC000054627026    0.1600
     35 H35        -8.0569    1.5487   68.6681 H       1  ZINC000054627026    0.2100
     36 H36        -7.6978   -0.3662   60.3303 H       1  ZINC000054627026    0.1400
     37 H37        -7.5157    1.8269   55.6029 H       1  ZINC000054627026    0.2100
     38 H38        -6.4902    2.3265   53.8945 H       1  ZINC000054627026    0.1400
     39 H39        -5.3298    2.9524   51.8162 H       1  ZINC000054627026    0.1400
     40 H40        -5.8026    1.7401   49.7272 H       1  ZINC000054627026    0.1400
     41 H41        -7.4359   -0.1008   49.7102 H       1  ZINC000054627026    0.1400
     42 H42        -8.5963   -0.7385   51.7849 H       1  ZINC000054627026    0.1400
@<TRIPOS>BOND
     1     1     2    2
     2     2     3   am
     3     2    18    1
     4     3     4    1
     5     3    29    1
     6     4    17   ar
     7     4     5   ar
     8     5     6   ar
     9     5    30    1
    10     6     7   ar
    11     6    31    1
    12     7    16   ar
    13     7     8    1
    14     8     9    1
    15     8    32    1
    16     9    10    1
    17     9    15    2
    18    10    14    1
    19    10    11    2
    20    11    12    1
    21    11    33    1
    22    12    13    2
    23    12    34    1
    24    13    14    1
    25    13    35    1
    26    15    16    1
    27    16    17   ar
    28    17    36    1
    29    18    28    1
    30    18    19    2
    31    19    20    1
    32    19    37    1
    33    20    21    1
    34    20    27    1
    35    21    26   ar
    36    21    22   ar
    37    22    23   ar
    38    22    38    1
    39    23    24   ar
    40    23    39    1
    41    24    25   ar
    42    24    40    1
    43    25    26   ar
    44    25    41    1
    45    26    42    1
    46    27    28    2
@<TRIPOS>SUBSTRUCTURE
     1 ZINC000054627026        1 TEMP              0 ****  ****    0 ROOT


##########                                Name:    ZINC000967287417
##########                DOCK_Rotatable_Bonds:                   7
##########                         Heavy_Atoms:                  25
##########                    Molecular_Weight:             347.414
##########                DOCK_Rotatable_Bonds:                   7
##########                       Formal_Charge:          -0.0200002
##########                     HBond_Acceptors:                   7
##########                        HBond_Donors:                   1
##########                         Heavy_Atoms:                  25
##########                          Grid_Score:          -31.231647
##########                     Grid_vdw_energy:          -30.810282
##########                      Grid_es_energy:           -0.421366
##########           Internal_energy_repulsive:            8.990179

@<TRIPOS>MOLECULE
ZINC000967287417
 50 52 1 0 0
SMALL
USER_CHARGES


@<TRIPOS>ATOM
      1 C1         -1.4251    2.1361   58.4939 C.3     1  ZINC000967287417    0.0300
      2 O2         -2.8233    2.1710   58.2006 O.3     1  ZINC000967287417   -0.3900
      3 C3         -3.3567    3.4902   58.0692 C.3     1  ZINC000967287417    0.1400
      4 C4         -4.8211    3.4077   57.7229 C.2     1  ZINC000967287417    0.0100
      5 C5         -5.8432    3.4777   58.6040 C.2     1  ZINC000967287417   -0.1900
      6 C6         -7.0323    3.3595   57.8675 C.2     1  ZINC000967287417   -0.1200
      7 C7         -6.6710    3.2215   56.5580 C.2     1  ZINC000967287417   -0.0700
      8 C8         -7.5866    3.0660   55.4231 C.2     1  ZINC000967287417    0.6100
      9 O9         -8.6976    3.5610   55.4654 O.2     1  ZINC000967287417   -0.5200
     10 N10        -7.1979    2.3749   54.3333 N.am    1  ZINC000967287417   -0.7000
     11 C11        -8.1120    2.2211   53.1988 C.3     1  ZINC000967287417    0.1600
     12 H12        -9.0874    2.6324   53.4590 H       1  ZINC000967287417    0.1000
     13 C13        -7.5506    2.9662   51.9857 C.3     1  ZINC000967287417    0.0400
     14 N14        -6.2457    2.3991   51.6223 N.3     1  ZINC000967287417   -0.5300
     15 C15        -5.6136    3.1782   50.5493 C.3     1  ZINC000967287417    0.1300
     16 C16        -4.1839    2.7326   50.3803 C.2     1  ZINC000967287417    0.0200
     17 N17        -3.1582    3.1201   51.0820 N.2     1  ZINC000967287417   -0.3500
     18 O18        -2.1381    2.5868   50.7114 O.3     1  ZINC000967287417    0.1000
     19 C19        -2.3625    1.7527   49.6865 C.2     1  ZINC000967287417   -0.0300
     20 C20        -1.3388    0.9153   48.9640 C.3     1  ZINC000967287417   -0.0800
     21 C21        -3.6919    1.8063   49.4324 C.2     1  ZINC000967287417   -0.2400
     22 C22        -6.3676    0.9854   51.2446 C.3     1  ZINC000967287417    0.0500
     23 C23        -6.8938    0.1813   52.4355 C.3     1  ZINC000967287417   -0.1100
     24 C24        -8.2581    0.7356   52.8577 C.3     1  ZINC000967287417   -0.1000
     25 H25        -8.9682    0.6180   52.0391 H       1  ZINC000967287417    0.0900
     26 C26        -8.7620   -0.0262   54.0852 C.3     1  ZINC000967287417   -0.1500
     27 O27        -5.3240    3.2586   56.4905 O.3     1  ZINC000967287417   -0.1600
     28 H28        -1.2382    2.6538   59.4348 H       1  ZINC000967287417    0.0500
     29 H29        -1.0973    1.0999   58.5781 H       1  ZINC000967287417    0.0900
     30 H30        -0.8734    2.6278   57.6927 H       1  ZINC000967287417    0.0500
     31 H31        -3.2356    4.0265   59.0103 H       1  ZINC000967287417    0.0900
     32 H32        -2.8256    4.0197   57.2782 H       1  ZINC000967287417    0.0700
     33 H33        -5.7608    3.6014   59.6737 H       1  ZINC000967287417    0.1600
     34 H34        -8.0382    3.3746   58.2605 H       1  ZINC000967287417    0.1600
     35 H35        -6.3129    1.9794   54.3000 H       1  ZINC000967287417    0.4100
     36 H36        -8.2379    2.8629   51.1460 H       1  ZINC000967287417    0.0500
     37 H37        -7.4325    4.0218   52.2304 H       1  ZINC000967287417    0.0900
     38 H38        -6.1561    3.0199   49.6173 H       1  ZINC000967287417    0.0600
     39 H39        -5.6360    4.2370   50.8073 H       1  ZINC000967287417    0.0900
     40 H40        -0.3554    1.0854   49.4022 H       1  ZINC000967287417    0.0800
     41 H41        -1.6006   -0.1387   49.0568 H       1  ZINC000967287417    0.0900
     42 H42        -1.3201    1.1937   47.9103 H       1  ZINC000967287417    0.0900
     43 H43        -4.2466    1.2706   48.6762 H       1  ZINC000967287417    0.1700
     44 H44        -7.0605    0.8914   50.4083 H       1  ZINC000967287417    0.0400
     45 H45        -5.3903    0.6023   50.9509 H       1  ZINC000967287417    0.0800
     46 H46        -6.9990   -0.8654   52.1500 H       1  ZINC000967287417    0.0700
     47 H47        -6.1944    0.2635   53.2676 H       1  ZINC000967287417    0.0700
     48 H48        -8.0524    0.0940   54.9039 H       1  ZINC000967287417    0.0600
     49 H49        -9.7327    0.3689   54.3848 H       1  ZINC000967287417    0.0600
     50 H50        -8.8598   -1.0840   53.8414 H       1  ZINC000967287417    0.0600
@<TRIPOS>BOND
     1     1     2    1
     2     1    28    1
     3     1    29    1
     4     1    30    1
     5     2     3    1
     6     3     4    1
     7     3    31    1
     8     3    32    1
     9     4    27    1
    10     4     5    2
    11     5     6    1
    12     5    33    1
    13     6     7    2
    14     6    34    1
    15     7     8    1
    16     7    27    1
    17     8     9    2
    18     8    10   am
    19    10    11    1
    20    10    35    1
    21    11    12    1
    22    11    24    1
    23    11    13    1
    24    13    14    1
    25    13    36    1
    26    13    37    1
    27    14    15    1
    28    14    22    1
    29    15    16    1
    30    15    38    1
    31    15    39    1
    32    16    21    1
    33    16    17    2
    34    17    18    1
    35    18    19    1
    36    19    20    1
    37    19    21    2
    38    20    40    1
    39    20    41    1
    40    20    42    1
    41    21    43    1
    42    22    23    1
    43    22    44    1
    44    22    45    1
    45    23    24    1
    46    23    46    1
    47    23    47    1
    48    24    25    1
    49    24    26    1
    50    26    48    1
    51    26    49    1
    52    26    50    1
@<TRIPOS>SUBSTRUCTURE
     1 ZINC000967287417        1 TEMP              0 ****  ****    0 ROOT


##########                                Name:    ZINC000603906271
##########                DOCK_Rotatable_Bonds:                   8
##########                         Heavy_Atoms:                  29
##########                    Molecular_Weight:             391.473
##########                DOCK_Rotatable_Bonds:                   8
##########                       Formal_Charge:           0.0499998
##########                     HBond_Acceptors:                   7
##########                        HBond_Donors:                   3
##########                         Heavy_Atoms:                  29
##########                          Grid_Score:          -31.187702
##########                     Grid_vdw_energy:          -31.714924
##########                      Grid_es_energy:            0.527222
##########           Internal_energy_repulsive:           24.317682

@<TRIPOS>MOLECULE
ZINC000603906271
 54 56 1 0 0
SMALL
USER_CHARGES


@<TRIPOS>ATOM
      1 C1         -7.9787    2.7885   50.0471 C.3     1  ZINC000603906271   -0.1600
      2 C2         -7.4945    3.0359   51.4772 C.3     1  ZINC000603906271    0.1300
      3 H3         -7.7865    4.0380   51.7915 H       1  ZINC000603906271    0.1200
      4 N4         -8.0975    2.0475   52.3749 N.am    1  ZINC000603906271   -0.7100
      5 C5         -9.2570    2.3263   53.0027 C.2     1  ZINC000603906271    0.5700
      6 O6         -9.8017    3.3984   52.8255 O.2     1  ZINC000603906271   -0.5300
      7 C7         -9.8665    1.3281   53.9072 C.ar    1  ZINC000603906271   -0.1400
      8 C8         -9.3108    0.0528   54.0197 C.ar    1  ZINC000603906271   -0.0800
      9 C9         -9.8841   -0.8739   54.8659 C.ar    1  ZINC000603906271   -0.1200
     10 C10       -11.0077   -0.5414   55.6016 C.ar    1  ZINC000603906271   -0.0400
     11 C11       -11.6289   -1.5588   56.5235 C.3     1  ZINC000603906271   -0.0400
     12 C12       -13.1530   -1.4867   56.4098 C.3     1  ZINC000603906271   -0.1400
     13 C13       -11.1539   -2.9593   56.1314 C.3     1  ZINC000603906271   -0.1500
     14 C14       -11.2105   -1.2634   57.9652 C.3     1  ZINC000603906271   -0.1400
     15 C15       -11.5633    0.7214   55.4950 C.ar    1  ZINC000603906271   -0.1300
     16 C16       -10.9966    1.6589   54.6565 C.ar    1  ZINC000603906271   -0.0500
     17 C17        -5.9935    2.9110   51.5280 C.2     1  ZINC000603906271    0.5100
     18 O18        -5.4375    2.7065   52.5865 O.2     1  ZINC000603906271   -0.5100
     19 N19        -5.2690    3.0266   50.3975 N.am    1  ZINC000603906271   -0.6700
     20 C20        -3.8753    2.9106   50.4448 C.ar    1  ZINC000603906271    0.1300
     21 C21        -3.1262    3.8263   51.1732 C.ar    1  ZINC000603906271   -0.1200
     22 C22        -1.7493    3.7149   51.2222 C.ar    1  ZINC000603906271   -0.1000
     23 C23        -1.1109    2.6938   50.5475 C.ar    1  ZINC000603906271   -0.0900
     24 C24        -1.8545    1.7710   49.8137 C.ar    1  ZINC000603906271    0.0000
     25 C25        -1.1697    0.6729   49.0873 C.2     1  ZINC000603906271    0.2700
     26 N26        -1.7595   -0.3602   48.5270 N.2     1  ZINC000603906271   -0.3000
     27 N27        -0.7440   -1.1443   47.9558 N.pl3   1  ZINC000603906271   -0.4800
     28 C28         0.4165   -0.5160   48.2166 C.2     1  ZINC000603906271    0.2700
     29 N29         0.1515    0.5729   48.8888 N.2     1  ZINC000603906271   -0.5300
     30 C30        -3.2416    1.8783   49.7692 C.ar    1  ZINC000603906271   -0.0800
     31 H31        -7.6867    1.7865   49.7328 H       1  ZINC000603906271    0.0700
     32 H32        -9.0644    2.8789   50.0104 H       1  ZINC000603906271    0.0800
     33 H33        -7.5300    3.5240   49.3793 H       1  ZINC000603906271    0.0700
     34 H34        -7.6622    1.1925   52.5173 H       1  ZINC000603906271    0.4100
     35 H35        -8.4342   -0.2083   53.4455 H       1  ZINC000603906271    0.1300
     36 H36        -9.4552   -1.8612   54.9539 H       1  ZINC000603906271    0.1300
     37 H37       -13.4511   -1.6972   55.3828 H       1  ZINC000603906271    0.0600
     38 H38       -13.6023   -2.2227   57.0767 H       1  ZINC000603906271    0.0600
     39 H39       -13.4913   -0.4890   56.6892 H       1  ZINC000603906271    0.0600
     40 H40       -10.0682   -3.0108   56.2124 H       1  ZINC000603906271    0.0600
     41 H41       -11.6033   -3.6953   56.7982 H       1  ZINC000603906271    0.0600
     42 H42       -11.4521   -3.1698   55.1043 H       1  ZINC000603906271    0.0600
     43 H43       -11.5489   -0.2656   58.2445 H       1  ZINC000603906271    0.0600
     44 H44       -11.6597   -1.9994   58.6320 H       1  ZINC000603906271    0.0600
     45 H45       -10.1247   -1.3148   58.0462 H       1  ZINC000603906271    0.0600
     46 H46       -12.4402    0.9747   56.0723 H       1  ZINC000603906271    0.1400
     47 H47       -11.4309    2.6444   54.5745 H       1  ZINC000603906271    0.1400
     48 H48        -5.7137    3.1901   49.5511 H       1  ZINC000603906271    0.4200
     49 H49        -3.6208    4.6273   51.7023 H       1  ZINC000603906271    0.1300
     50 H50        -1.1712    4.4291   51.7898 H       1  ZINC000603906271    0.1400
     51 H51        -0.0349    2.6101   50.5876 H       1  ZINC000603906271    0.1400
     52 H52        -0.8573   -1.9757   47.4692 H       1  ZINC000603906271    0.4400
     53 H53         1.3986   -0.8516   47.9175 H       1  ZINC000603906271    0.2300
     54 H54        -3.8221    1.1657   49.2022 H       1  ZINC000603906271    0.1500
@<TRIPOS>BOND
     1     1     2    1
     2     1    31    1
     3     1    32    1
     4     1    33    1
     5     2     3    1
     6     2     4    1
     7     2    17    1
     8     4     5   am
     9     4    34    1
    10     5     6    2
    11     5     7    1
    12     7    16   ar
    13     7     8   ar
    14     8     9   ar
    15     8    35    1
    16     9    10   ar
    17     9    36    1
    18    10    11    1
    19    10    15   ar
    20    11    12    1
    21    11    13    1
    22    11    14    1
    23    12    37    1
    24    12    38    1
    25    12    39    1
    26    13    40    1
    27    13    41    1
    28    13    42    1
    29    14    43    1
    30    14    44    1
    31    14    45    1
    32    15    16   ar
    33    15    46    1
    34    16    47    1
    35    17    18    2
    36    17    19   am
    37    19    20    1
    38    19    48    1
    39    20    30   ar
    40    20    21   ar
    41    21    22   ar
    42    21    49    1
    43    22    23   ar
    44    22    50    1
    45    23    24   ar
    46    23    51    1
    47    24    25    1
    48    24    30   ar
    49    25    29    1
    50    25    26    2
    51    26    27    1
    52    27    28    1
    53    27    52    1
    54    28    29    2
    55    28    53    1
    56    30    54    1
@<TRIPOS>SUBSTRUCTURE
     1 ZINC000603906271        1 TEMP              0 ****  ****    0 ROOT


##########                                Name:    ZINC000151991096
##########                DOCK_Rotatable_Bonds:                   8
##########                         Heavy_Atoms:                  27
##########                    Molecular_Weight:             364.444
##########                DOCK_Rotatable_Bonds:                   8
##########                       Formal_Charge:          -0.0200004
##########                     HBond_Acceptors:                   5
##########                        HBond_Donors:                   1
##########                         Heavy_Atoms:                  27
##########                          Grid_Score:          -31.176264
##########                     Grid_vdw_energy:          -31.888660
##########                      Grid_es_energy:            0.712397
##########           Internal_energy_repulsive:           16.084377

@<TRIPOS>MOLECULE
ZINC000151991096
 51 53 1 0 0
SMALL
USER_CHARGES


@<TRIPOS>ATOM
      1 C1         -9.9012   -1.0091   54.5706 C.3     1  ZINC000151991096   -0.1500
      2 C2        -10.4020    0.3155   55.1500 C.3     1  ZINC000151991096   -0.1300
      3 C3         -9.2059    1.1930   55.5244 C.3     1  ZINC000151991096    0.1400
      4 H4         -9.5486    2.2080   55.7257 H       1  ZINC000151991096    0.1000
      5 N5         -8.2481    1.2118   54.4161 N.am    1  ZINC000151991096   -0.7200
      6 C6         -7.5046    2.3122   54.1864 C.2     1  ZINC000151991096    0.5600
      7 O7         -7.6301    3.2900   54.8981 O.2     1  ZINC000151991096   -0.5300
      8 C8         -6.5383    2.3303   53.0708 C.ar    1  ZINC000151991096   -0.1700
      9 C9         -6.8186    1.6379   51.8899 C.ar    1  ZINC000151991096   -0.0500
     10 C10        -5.9148    1.6577   50.8512 C.ar    1  ZINC000151991096   -0.1600
     11 C11        -4.7249    2.3652   50.9763 C.ar    1  ZINC000151991096    0.1600
     12 O12        -3.8368    2.3826   49.9503 O.3     1  ZINC000151991096   -0.3000
     13 C13        -3.2969    1.1254   49.5382 C.3     1  ZINC000151991096    0.0900
     14 C14        -1.8007    1.2418   49.4013 C.ar    1  ZINC000151991096   -0.0500
     15 C15        -1.1130    2.1974   50.1198 C.ar    1  ZINC000151991096   -0.1000
     16 C16         0.2609    2.3057   49.9952 C.ar    1  ZINC000151991096   -0.0900
     17 C17         0.9542    1.4580   49.1498 C.ar    1  ZINC000151991096   -0.1200
     18 C18         0.2790    0.4977   48.4250 C.ar    1  ZINC000151991096   -0.0700
     19 C19        -1.1064    0.3788   48.5506 C.ar    1  ZINC000151991096   -0.0200
     20 C20        -1.8138   -0.6158   47.8015 C.1     1  ZINC000151991096    0.2400
     21 N21        -2.3749   -1.4047   47.2072 N.1     1  ZINC000151991096   -0.4000
     22 C22        -4.4423    3.0552   52.1494 C.ar    1  ZINC000151991096   -0.2200
     23 C23        -5.3434    3.0447   53.1906 C.ar    1  ZINC000151991096   -0.0100
     24 C24        -8.5290    0.6263   56.7741 C.3     1  ZINC000151991096    0.0700
     25 H25        -8.5824   -0.4623   56.7619 H       1  ZINC000151991096    0.1000
     26 C26        -9.2257    1.1707   58.0396 C.3     1  ZINC000151991096   -0.1500
     27 C27        -8.0268    1.4182   58.9952 C.3     1  ZINC000151991096   -0.1600
     28 C28        -6.9317    1.8497   57.9876 C.3     1  ZINC000151991096    0.0500
     29 O29        -7.1599    1.0451   56.8173 O.3     1  ZINC000151991096   -0.3700
     30 H30        -9.2917   -1.5234   55.3136 H       1  ZINC000151991096    0.0500
     31 H31       -10.7534   -1.6342   54.3038 H       1  ZINC000151991096    0.0500
     32 H32        -9.3018   -0.8132   53.6815 H       1  ZINC000151991096    0.0600
     33 H33       -11.0114    0.8299   54.4069 H       1  ZINC000151991096    0.0700
     34 H34       -11.0014    0.1197   56.0391 H       1  ZINC000151991096    0.0700
     35 H35        -8.1489    0.4321   53.8475 H       1  ZINC000151991096    0.4000
     36 H36        -7.7427    1.0877   51.7921 H       1  ZINC000151991096    0.1300
     37 H37        -6.1304    1.1225   49.9383 H       1  ZINC000151991096    0.1400
     38 H38        -3.5355    0.3659   50.2827 H       1  ZINC000151991096    0.0800
     39 H39        -3.7286    0.8416   48.5784 H       1  ZINC000151991096    0.0800
     40 H40        -1.6482    2.8628   50.7811 H       1  ZINC000151991096    0.1400
     41 H41         0.7943    3.0558   50.5603 H       1  ZINC000151991096    0.1400
     42 H42         2.0264    1.5486   49.0567 H       1  ZINC000151991096    0.1400
     43 H43         0.8214   -0.1632   47.7651 H       1  ZINC000151991096    0.1400
     44 H44        -3.5165    3.6035   52.2429 H       1  ZINC000151991096    0.1300
     45 H45        -5.1233    3.5814   54.1017 H       1  ZINC000151991096    0.1400
     46 H46        -9.7488    2.1024   57.8240 H       1  ZINC000151991096    0.0800
     47 H47        -9.9074    0.4293   58.4565 H       1  ZINC000151991096    0.0900
     48 H48        -8.2468    2.2179   59.7025 H       1  ZINC000151991096    0.0800
     49 H49        -7.7435    0.5032   59.5153 H       1  ZINC000151991096    0.0800
     50 H50        -7.0352    2.9076   57.7463 H       1  ZINC000151991096    0.0600
     51 H51        -5.9413    1.6491   58.3962 H       1  ZINC000151991096    0.0900
@<TRIPOS>BOND
     1     1     2    1
     2     1    30    1
     3     1    31    1
     4     1    32    1
     5     2     3    1
     6     2    33    1
     7     2    34    1
     8     3     4    1
     9     3     5    1
    10     3    24    1
    11     5     6   am
    12     5    35    1
    13     6     7    2
    14     6     8    1
    15     8    23   ar
    16     8     9   ar
    17     9    10   ar
    18     9    36    1
    19    10    11   ar
    20    10    37    1
    21    11    12    1
    22    11    22   ar
    23    12    13    1
    24    13    14    1
    25    13    38    1
    26    13    39    1
    27    14    19   ar
    28    14    15   ar
    29    15    16   ar
    30    15    40    1
    31    16    17   ar
    32    16    41    1
    33    17    18   ar
    34    17    42    1
    35    18    19   ar
    36    18    43    1
    37    19    20    1
    38    20    21    3
    39    22    23   ar
    40    22    44    1
    41    23    45    1
    42    24    25    1
    43    24    29    1
    44    24    26    1
    45    26    27    1
    46    26    46    1
    47    26    47    1
    48    27    28    1
    49    27    48    1
    50    27    49    1
    51    28    29    1
    52    28    50    1
    53    28    51    1
@<TRIPOS>SUBSTRUCTURE
     1 ZINC000151991096        1 TEMP              0 ****  ****    0 ROOT


##########                                Name:    ZINC000328606936
##########                DOCK_Rotatable_Bonds:                   6
##########                         Heavy_Atoms:                  23
##########                    Molecular_Weight:             338.428
##########                DOCK_Rotatable_Bonds:                   6
##########                       Formal_Charge:           0.0100001
##########                     HBond_Acceptors:                   7
##########                        HBond_Donors:                   2
##########                         Heavy_Atoms:                  23
##########                          Grid_Score:          -31.156012
##########                     Grid_vdw_energy:          -31.572586
##########                      Grid_es_energy:            0.416574
##########           Internal_energy_repulsive:            5.350263

@<TRIPOS>MOLECULE
ZINC000328606936
 45 47 1 0 0
SMALL
USER_CHARGES


@<TRIPOS>ATOM
      1 C1         -7.5250    3.1992   50.0001 C.3     1  <0>        -0.0500
      2 N2         -6.7142    2.2469   50.7705 N.4     1  <0>        -0.3500
      3 H3         -6.2490    2.7326   51.5227 H       1  <0>         0.4200
      4 C4         -5.7112    1.6332   49.8899 C.3     1  <0>        -0.0900
      5 C5         -4.3776    2.3013   50.1052 C.2     1  <0>         0.4900
      6 O6         -4.3293    3.4773   50.4234 O.co2   1  <0>        -0.6700
      7 O7         -3.3471    1.6659   49.9612 O.co2   1  <0>        -0.6400
      8 C8         -7.5833    1.2011   51.3263 C.3     1  <0>         0.0100
      9 H9         -7.9196    0.5296   50.5363 H       1  <0>         0.1600
     10 C10        -8.7944    1.8350   52.0437 C.3     1  <0>         0.1000
     11 N11        -9.0258    0.9689   53.2231 N.am    1  <0>        -0.6200
     12 C12       -10.2060    0.5717   53.7384 C.2     1  <0>         0.6200
     13 O13       -11.2476    0.9315   53.2218 O.2     1  <0>        -0.5100
     14 C14       -10.2353   -0.2936   54.9213 C.2     1  <0>        -0.2800
     15 C15        -9.8403    0.0666   56.1731 C.2     1  <0>        -0.0300
     16 C16        -9.9683   -0.9366   57.1161 C.2     1  <0>        -0.1200
     17 C17       -10.4634   -2.0939   56.6219 C.2     1  <0>        -0.1900
     18 C18       -10.7008   -3.3446   57.4472 C.3     1  <0>        -0.0500
     19 C19        -9.9263   -3.2211   58.7619 C.3     1  <0>        -0.1200
     20 C20       -10.2430   -1.8660   59.4015 C.3     1  <0>        -0.1200
     21 C21        -9.5860   -0.7556   58.5795 C.3     1  <0>        -0.0600
     22 S22       -10.7929   -1.9584   54.9520 S.3     1  <0>         0.2000
     23 C23        -7.6653    0.6382   53.7075 C.3     1  <0>         0.0600
     24 C24        -6.8378    0.4101   52.4213 C.3     1  <0>         0.0800
     25 H25        -5.8271    0.7984   52.5472 H       1  <0>         0.1000
     26 O26        -6.7979   -0.9809   52.0964 O.3     1  <0>        -0.5400
     27 H27        -8.0274    2.6745   49.1875 H       1  <0>         0.1100
     28 H28        -8.2692    3.6545   50.6536 H       1  <0>         0.1100
     29 H29        -6.8801    3.9752   49.5877 H       1  <0>         0.1600
     30 H30        -5.6268    0.5712   50.1200 H       1  <0>         0.1200
     31 H31        -6.0158    1.7568   48.8506 H       1  <0>         0.1300
     32 H32        -8.5600    2.8517   52.3590 H       1  <0>         0.1000
     33 H33        -9.6677    1.8302   51.3915 H       1  <0>         0.1200
     34 H34        -9.4598    1.0495   56.4089 H       1  <0>         0.1500
     35 H35       -11.7652   -3.4469   57.6582 H       1  <0>         0.0900
     36 H36       -10.3497   -4.2176   56.8969 H       1  <0>         0.0800
     37 H37       -10.2251   -4.0222   59.4380 H       1  <0>         0.0700
     38 H38        -8.8568   -3.2895   58.5632 H       1  <0>         0.0700
     39 H39       -11.3225   -1.7157   59.4203 H       1  <0>         0.0700
     40 H40        -9.8540   -1.8441   60.4194 H       1  <0>         0.0700
     41 H41        -8.5027   -0.8153   58.6850 H       1  <0>         0.0800
     42 H42        -9.9364    0.2149   58.9306 H       1  <0>         0.0800
     43 H43        -7.2545    1.4680   54.2826 H       1  <0>         0.1000
     44 H44        -7.6867   -0.2695   54.3106 H       1  <0>         0.1000
     45 H45        -7.6011   -1.3080   51.6685 H       1  <0>         0.4000
@<TRIPOS>BOND
     1     1     2    1
     2     1    27    1
     3     1    28    1
     4     1    29    1
     5     2     3    1
     6     2     4    1
     7     2     8    1
     8     4     5    1
     9     4    30    1
    10     4    31    1
    11     5     6   ar
    12     5     7   ar
    13     8     9    1
    14     8    24    1
    15     8    10    1
    16    10    11    1
    17    10    32    1
    18    10    33    1
    19    11    12   am
    20    11    23    1
    21    12    13    2
    22    12    14    1
    23    14    22    1
    24    14    15    2
    25    15    16    1
    26    15    34    1
    27    16    21    1
    28    16    17    2
    29    17    18    1
    30    17    22    1
    31    18    19    1
    32    18    35    1
    33    18    36    1
    34    19    20    1
    35    19    37    1
    36    19    38    1
    37    20    21    1
    38    20    39    1
    39    20    40    1
    40    21    41    1
    41    21    42    1
    42    23    24    1
    43    23    43    1
    44    23    44    1
    45    24    25    1
    46    24    26    1
    47    26    45    1
@<TRIPOS>SUBSTRUCTURE
     1 <0>         1 TEMP              0 ****  ****    0 ROOT


##########                                Name:    ZINC000486710336
##########                DOCK_Rotatable_Bonds:                   6
##########                         Heavy_Atoms:                  31
##########                    Molecular_Weight:             420.555
##########                DOCK_Rotatable_Bonds:                   6
##########                       Formal_Charge:         1.49012e-07
##########                     HBond_Acceptors:                   6
##########                        HBond_Donors:                   1
##########                         Heavy_Atoms:                  31
##########                          Grid_Score:          -31.147121
##########                     Grid_vdw_energy:          -31.256340
##########                      Grid_es_energy:            0.109219
##########           Internal_energy_repulsive:           54.616890

@<TRIPOS>MOLECULE
ZINC000486710336
 63 67 1 0 0
SMALL
USER_CHARGES


@<TRIPOS>ATOM
      1 C1         -5.6019    4.4346   59.8046 C.3     1  ZINC000486710336    0.1000
      2 N2         -4.4138    3.9956   59.0685 N.pl3   1  ZINC000486710336   -0.3900
      3 N3         -3.1254    3.8434   59.5965 N.2     1  ZINC000486710336   -0.2800
      4 C4         -2.3318    3.4356   58.6394 C.2     1  ZINC000486710336    0.1000
      5 C5         -0.8590    3.1479   58.7787 C.3     1  ZINC000486710336   -0.0100
      6 C6         -0.3322    3.6649   60.1404 C.3     1  ZINC000486710336   -0.1200
      7 C7          0.9274    2.7937   60.3725 C.3     1  ZINC000486710336   -0.1200
      8 C8          0.5274    1.4014   59.8423 C.3     1  ZINC000486710336   -0.1200
      9 C9         -0.6085    1.6266   58.8289 C.3     1  ZINC000486710336   -0.1100
     10 C10        -3.0805    3.3121   57.4665 C.2     1  ZINC000486710336   -0.2600
     11 C11        -4.3664    3.6580   57.7535 C.2     1  ZINC000486710336    0.3000
     12 N12        -5.4345    3.6705   56.8609 N.am    1  ZINC000486710336   -0.6200
     13 C13        -6.3528    2.6847   56.8949 C.2     1  ZINC000486710336    0.5100
     14 O14        -6.2477    1.7849   57.7030 O.2     1  ZINC000486710336   -0.4800
     15 C15        -7.4993    2.6991   55.9387 C.2     1  ZINC000486710336    0.5300
     16 O16        -7.4550    3.3997   54.9487 O.2     1  ZINC000486710336   -0.5100
     17 N17        -8.5836    1.9343   56.1750 N.am    1  ZINC000486710336   -0.5800
     18 C18        -8.7795    1.0419   57.3317 C.3     1  ZINC000486710336    0.1000
     19 C19       -10.1496    0.3521   57.1483 C.3     1  ZINC000486710336   -0.0600
     20 H20       -10.9275    0.8864   57.6938 H       1  ZINC000486710336    0.1000
     21 C21       -10.0857   -1.0883   57.5865 C.ar    1  ZINC000486710336   -0.0700
     22 C22        -9.1102   -1.4976   58.4762 C.ar    1  ZINC000486710336   -0.1100
     23 C23        -9.0516   -2.8189   58.8782 C.ar    1  ZINC000486710336   -0.1200
     24 C24        -9.9688   -3.7309   58.3906 C.ar    1  ZINC000486710336   -0.1200
     25 C25       -10.9449   -3.3216   57.5015 C.ar    1  ZINC000486710336   -0.1200
     26 C26       -11.0062   -1.9993   57.1030 C.ar    1  ZINC000486710336   -0.1100
     27 C27       -10.3817    0.4567   55.6096 C.3     1  ZINC000486710336   -0.0800
     28 H28       -11.4352    0.3965   55.3369 H       1  ZINC000486710336    0.1100
     29 C29        -9.5478   -0.6529   54.9657 C.3     1  ZINC000486710336   -0.1100
     30 C30        -9.3672   -0.3939   53.4719 C.3     1  ZINC000486710336   -0.1200
     31 C31        -8.6063    0.9240   53.2909 C.3     1  ZINC000486710336   -0.1100
     32 C32        -9.4606    2.0571   53.8593 C.3     1  ZINC000486710336   -0.1400
     33 C33        -9.7780    1.8480   55.3306 C.3     1  ZINC000486710336    0.1400
     34 H34       -10.4747    2.6234   55.6492 H       1  ZINC000486710336    0.0800
     35 H35        -6.1067    3.5673   60.2302 H       1  ZINC000486710336    0.0800
     36 H36        -5.3037    5.1109   60.6057 H       1  ZINC000486710336    0.1000
     37 H37        -6.2794    4.9523   59.1255 H       1  ZINC000486710336    0.0800
     38 H38        -0.3038    3.5990   57.9563 H       1  ZINC000486710336    0.0900
     39 H39        -0.0657    4.7198   60.0761 H       1  ZINC000486710336    0.0700
     40 H40        -1.0674    3.4983   60.9276 H       1  ZINC000486710336    0.0800
     41 H41         1.7731    3.1880   59.8090 H       1  ZINC000486710336    0.0700
     42 H42         1.1659    2.7434   61.4349 H       1  ZINC000486710336    0.0700
     43 H43         1.3785    0.9304   59.3505 H       1  ZINC000486710336    0.0600
     44 H44         0.1768    0.7758   60.6632 H       1  ZINC000486710336    0.0600
     45 H45        -1.5103    1.1102   59.1581 H       1  ZINC000486710336    0.0700
     46 H46        -0.3086    1.2648   57.8454 H       1  ZINC000486710336    0.0700
     47 H47        -2.7069    2.9948   56.5041 H       1  ZINC000486710336    0.1700
     48 H48        -5.5179    4.3890   56.2145 H       1  ZINC000486710336    0.4200
     49 H49        -7.9881    0.2929   57.3608 H       1  ZINC000486710336    0.0900
     50 H50        -8.7774    1.6235   58.2535 H       1  ZINC000486710336    0.0800
     51 H51        -8.3936   -0.7849   58.8571 H       1  ZINC000486710336    0.1200
     52 H52        -8.2890   -3.1386   59.5728 H       1  ZINC000486710336    0.1200
     53 H53        -9.9226   -4.7634   58.7041 H       1  ZINC000486710336    0.1200
     54 H54       -11.6613   -4.0342   57.1203 H       1  ZINC000486710336    0.1200
     55 H55       -11.7687   -1.6795   56.4082 H       1  ZINC000486710336    0.1200
     56 H56        -8.5693   -0.6906   55.4445 H       1  ZINC000486710336    0.0700
     57 H57       -10.0526   -1.6087   55.1059 H       1  ZINC000486710336    0.0700
     58 H58        -8.7977   -1.2092   53.0256 H       1  ZINC000486710336    0.0600
     59 H59       -10.3435   -0.3213   52.9925 H       1  ZINC000486710336    0.0600
     60 H60        -7.6575    0.8762   53.8252 H       1  ZINC000486710336    0.0500
     61 H61        -8.4226    1.0991   52.2309 H       1  ZINC000486710336    0.0600
     62 H62        -8.9267    3.0001   53.7420 H       1  ZINC000486710336    0.1000
     63 H63       -10.3991    2.1082   53.3073 H       1  ZINC000486710336    0.0700
@<TRIPOS>BOND
     1     1     2    1
     2     1    35    1
     3     1    36    1
     4     1    37    1
     5     2    11    1
     6     2     3    1
     7     3     4    2
     8     4     5    1
     9     4    10    1
    10     5     9    1
    11     5     6    1
    12     5    38    1
    13     6     7    1
    14     6    39    1
    15     6    40    1
    16     7     8    1
    17     7    41    1
    18     7    42    1
    19     8     9    1
    20     8    43    1
    21     8    44    1
    22     9    45    1
    23     9    46    1
    24    10    11    2
    25    10    47    1
    26    11    12    1
    27    12    13   am
    28    12    48    1
    29    13    14    2
    30    13    15    1
    31    15    16    2
    32    15    17   am
    33    17    33    1
    34    17    18    1
    35    18    19    1
    36    18    49    1
    37    18    50    1
    38    19    20    1
    39    19    21    1
    40    19    27    1
    41    21    26   ar
    42    21    22   ar
    43    22    23   ar
    44    22    51    1
    45    23    24   ar
    46    23    52    1
    47    24    25   ar
    48    24    53    1
    49    25    26   ar
    50    25    54    1
    51    26    55    1
    52    27    28    1
    53    27    33    1
    54    27    29    1
    55    29    30    1
    56    29    56    1
    57    29    57    1
    58    30    31    1
    59    30    58    1
    60    30    59    1
    61    31    32    1
    62    31    60    1
    63    31    61    1
    64    32    33    1
    65    32    62    1
    66    32    63    1
    67    33    34    1
@<TRIPOS>SUBSTRUCTURE
     1 ZINC000486710336        1 TEMP              0 ****  ****    0 ROOT


##########                                Name:    ZINC000549659617
##########                DOCK_Rotatable_Bonds:                   9
##########                         Heavy_Atoms:                  28
##########                    Molecular_Weight:              418.48
##########                DOCK_Rotatable_Bonds:                   9
##########                       Formal_Charge:          0.00999956
##########                     HBond_Acceptors:                   9
##########                        HBond_Donors:                   1
##########                         Heavy_Atoms:                  28
##########                          Grid_Score:          -31.130264
##########                     Grid_vdw_energy:          -30.986181
##########                      Grid_es_energy:           -0.144083
##########           Internal_energy_repulsive:           26.843731

@<TRIPOS>MOLECULE
ZINC000549659617
 53 55 1 0 0
SMALL
USER_CHARGES


@<TRIPOS>ATOM
      1 C1         -7.6550    2.2343   56.8496 C.3     1  ZINC000549659617   -0.1500
      2 C2         -7.4725    1.8586   55.3776 C.3     1  ZINC000549659617   -0.1500
      3 C3         -8.8114    1.9881   54.6486 C.3     1  ZINC000549659617    0.1100
      4 N4         -8.9950    0.8399   53.7572 N.am    1  ZINC000549659617   -0.6100
      5 C5         -9.7130   -0.2241   54.1681 C.2     1  ZINC000549659617    0.7100
      6 O6         -9.8667   -1.1763   53.4280 O.2     1  ZINC000549659617   -0.5700
      7 N7        -10.2605   -0.2326   55.3997 N.am    1  ZINC000549659617   -0.7400
      8 C8        -11.0423   -1.3886   55.8457 C.3     1  ZINC000549659617    0.2300
      9 H9        -10.9644   -2.1867   55.1074 H       1  ZINC000549659617    0.1100
     10 C10       -10.5098   -1.8747   57.1691 C.ar    1  ZINC000549659617   -0.0900
     11 C11       -10.4606   -3.2295   57.4385 C.ar    1  ZINC000549659617   -0.0800
     12 C12        -9.9721   -3.6755   58.6525 C.ar    1  ZINC000549659617   -0.1100
     13 C13        -9.5325   -2.7667   59.5965 C.ar    1  ZINC000549659617   -0.0700
     14 C14        -9.5809   -1.4115   59.3267 C.ar    1  ZINC000549659617   -0.1800
     15 C15        -9.1022   -0.4206   60.3561 C.3     1  ZINC000549659617    0.5100
     16 F16        -9.3223   -0.9366   61.6378 F       1  ZINC000549659617   -0.1800
     17 F17        -7.7347   -0.1856   60.1765 F       1  ZINC000549659617   -0.1700
     18 F18        -9.8048    0.7802   60.2098 F       1  ZINC000549659617   -0.1700
     19 C19       -10.0653   -0.9659   58.1113 C.ar    1  ZINC000549659617   -0.0500
     20 C20       -12.5087   -0.9819   56.0043 C.3     1  ZINC000549659617   -0.1700
     21 C21       -12.8101    0.5010   56.2297 C.3     1  ZINC000549659617   -0.1700
     22 C22       -13.1362   -0.1499   54.8841 C.3     1  ZINC000549659617   -0.1800
     23 C23        -8.3984    0.8485   52.4192 C.3     1  ZINC000549659617    0.1700
     24 H24        -9.1428    0.5606   51.6771 H       1  ZINC000549659617    0.1100
     25 C25        -7.2028   -0.1189   52.3693 C.3     1  ZINC000549659617   -0.1400
     26 C26        -6.3965    0.1577   51.0847 C.3     1  ZINC000549659617   -0.5900
     27 S27        -6.6892    1.9239   50.7099 S.o2    1  ZINC000549659617    2.3900
     28 O28        -5.4865    2.6536   50.9110 O.2     1  ZINC000549659617   -0.9300
     29 O29        -7.3861    2.0345   49.4765 O.2     1  ZINC000549659617   -0.9400
     30 C30        -7.8429    2.2591   52.0946 C.3     1  ZINC000549659617   -0.6100
     31 H31        -6.7012    2.1420   57.3690 H       1  ZINC000549659617    0.0600
     32 H32        -8.0096    3.2624   56.9208 H       1  ZINC000549659617    0.0600
     33 H33        -8.3842    1.5658   57.3074 H       1  ZINC000549659617    0.0600
     34 H34        -6.7433    2.5270   54.9197 H       1  ZINC000549659617    0.0700
     35 H35        -7.1179    0.8304   55.3063 H       1  ZINC000549659617    0.0700
     36 H36        -9.6211    2.0151   55.3778 H       1  ZINC000549659617    0.0800
     37 H37        -8.8189    2.9074   54.0630 H       1  ZINC000549659617    0.0900
     38 H38       -10.1369    0.5265   55.9907 H       1  ZINC000549659617    0.4000
     39 H39       -10.8041   -3.9396   56.7008 H       1  ZINC000549659617    0.1300
     40 H40        -9.9343   -4.7340   58.8633 H       1  ZINC000549659617    0.1400
     41 H41        -9.1516   -3.1151   60.5451 H       1  ZINC000549659617    0.1400
     42 H42       -10.1031    0.0926   57.9005 H       1  ZINC000549659617    0.1400
     43 H43       -13.1459   -1.7078   56.5095 H       1  ZINC000549659617    0.1100
     44 H44       -13.6458    0.7510   56.8836 H       1  ZINC000549659617    0.0900
     45 H45       -11.9638    1.1870   56.2651 H       1  ZINC000549659617    0.0900
     46 H46       -12.5043    0.1078   54.0342 H       1  ZINC000549659617    0.1200
     47 H47       -14.1863   -0.3282   54.6525 H       1  ZINC000549659617    0.0900
     48 H48        -6.5679    0.0377   53.2413 H       1  ZINC000549659617    0.1100
     49 H49        -7.5636   -1.1474   52.3611 H       1  ZINC000549659617    0.0900
     50 H50        -5.3353   -0.0218   51.2578 H       1  ZINC000549659617    0.1400
     51 H51        -6.7586   -0.4674   50.2685 H       1  ZINC000549659617    0.1400
     52 H52        -8.6433    2.9279   51.7782 H       1  ZINC000549659617    0.1400
     53 H53        -7.3095    2.6707   52.9515 H       1  ZINC000549659617    0.1600
@<TRIPOS>BOND
     1     1     2    1
     2     1    31    1
     3     1    32    1
     4     1    33    1
     5     2     3    1
     6     2    34    1
     7     2    35    1
     8     3     4    1
     9     3    36    1
    10     3    37    1
    11     4     5   am
    12     4    23    1
    13     5     6    2
    14     5     7   am
    15     7     8    1
    16     7    38    1
    17     8     9    1
    18     8    10    1
    19     8    20    1
    20    10    19   ar
    21    10    11   ar
    22    11    12   ar
    23    11    39    1
    24    12    13   ar
    25    12    40    1
    26    13    14   ar
    27    13    41    1
    28    14    15    1
    29    14    19   ar
    30    15    16    1
    31    15    17    1
    32    15    18    1
    33    19    42    1
    34    20    22    1
    35    20    21    1
    36    20    43    1
    37    21    22    1
    38    21    44    1
    39    21    45    1
    40    22    46    1
    41    22    47    1
    42    23    24    1
    43    23    30    1
    44    23    25    1
    45    25    26    1
    46    25    48    1
    47    25    49    1
    48    26    27    1
    49    26    50    1
    50    26    51    1
    51    27    28    2
    52    27    29    2
    53    27    30    1
    54    30    52    1
    55    30    53    1
@<TRIPOS>SUBSTRUCTURE
     1 ZINC000549659617        1 TEMP              0 ****  ****    0 ROOT


##########                                Name:    ZINC000481050680
##########                DOCK_Rotatable_Bonds:                   7
##########                         Heavy_Atoms:                  29
##########                    Molecular_Weight:              412.46
##########                DOCK_Rotatable_Bonds:                   7
##########                       Formal_Charge:          -0.0199997
##########                     HBond_Acceptors:                   7
##########                        HBond_Donors:                   1
##########                         Heavy_Atoms:                  29
##########                          Grid_Score:          -31.125265
##########                     Grid_vdw_energy:          -29.345930
##########                      Grid_es_energy:           -1.779336
##########           Internal_energy_repulsive:           13.415106

@<TRIPOS>MOLECULE
ZINC000481050680
 47 49 1 0 0
SMALL
USER_CHARGES


@<TRIPOS>ATOM
      1 N1         -7.5498    0.1357   67.0027 N.1     1  ZINC000481050680   -0.3900
      2 C2         -7.9301    0.1942   65.9340 C.1     1  ZINC000481050680    0.2500
      3 C3         -8.4097    0.2679   64.5867 C.ar    1  ZINC000481050680    0.0200
      4 C4         -7.6696   -0.2985   63.5472 C.ar    1  ZINC000481050680   -0.0800
      5 C5         -8.1366   -0.2250   62.2509 C.ar    1  ZINC000481050680   -0.0800
      6 C6         -9.3355    0.4082   61.9787 C.ar    1  ZINC000481050680   -0.1000
      7 C7         -9.8388    0.4842   60.5603 C.3     1  ZINC000481050680   -0.5900
      8 S8        -10.5832   -1.1037   60.0968 S.o2    1  ZINC000481050680    2.6000
      9 O9         -9.5973   -2.1266   60.0659 O.2     1  ZINC000481050680   -0.9300
     10 O10       -11.8157   -1.2944   60.7779 O.2     1  ZINC000481050680   -0.9400
     11 N11       -11.0190   -0.9086   58.5110 N.am    1  ZINC000481050680   -1.1100
     12 C12       -11.6634   -2.0077   57.7879 C.3     1  ZINC000481050680    0.2100
     13 H13       -12.0832   -2.7158   58.5023 H       1  ZINC000481050680    0.1000
     14 C14       -10.6286   -2.7186   56.9133 C.3     1  ZINC000481050680   -0.0800
     15 C15       -10.1828   -1.7938   55.8102 C.ar    1  ZINC000481050680   -0.0900
     16 C16       -10.7402   -1.9020   54.5499 C.ar    1  ZINC000481050680   -0.1200
     17 C17       -10.3313   -1.0537   53.5380 C.ar    1  ZINC000481050680   -0.1200
     18 C18        -9.3651   -0.0969   53.7865 C.ar    1  ZINC000481050680   -0.1200
     19 C19        -8.8081    0.0119   55.0470 C.ar    1  ZINC000481050680   -0.1200
     20 C20        -9.2202   -0.8336   56.0601 C.ar    1  ZINC000481050680   -0.1200
     21 C21       -12.7647   -1.4591   56.9179 C.ar    1  ZINC000481050680   -0.1300
     22 C22       -12.6686   -0.1792   56.4062 C.ar    1  ZINC000481050680   -0.0700
     23 C23       -13.6791    0.3244   55.6079 C.ar    1  ZINC000481050680   -0.1300
     24 C24       -14.7864   -0.4515   55.3212 C.ar    1  ZINC000481050680   -0.0900
     25 C25       -14.8850   -1.7319   55.8324 C.ar    1  ZINC000481050680   -0.1500
     26 C26       -13.8708   -2.2396   56.6263 C.ar    1  ZINC000481050680    0.1100
     27 F27       -13.9660   -3.4910   57.1264 F       1  ZINC000481050680   -0.1400
     28 C28       -10.0765    0.9727   63.0050 C.ar    1  ZINC000481050680    0.1200
     29 F29       -11.2472    1.5892   62.7316 F       1  ZINC000481050680   -0.1200
     30 C30        -9.6222    0.9016   64.3078 C.ar    1  ZINC000481050680   -0.1000
     31 H31        -6.7328   -0.7933   63.7573 H       1  ZINC000481050680    0.1500
     32 H32        -7.5640   -0.6629   61.4466 H       1  ZINC000481050680    0.1500
     33 H33       -10.5871    1.2729   60.4820 H       1  ZINC000481050680    0.1500
     34 H34        -9.0072    0.7048   59.8911 H       1  ZINC000481050680    0.1500
     35 H35       -10.8476   -0.0665   58.0611 H       1  ZINC000481050680    0.4200
     36 H36        -9.7691   -2.9986   57.5223 H       1  ZINC000481050680    0.0900
     37 H37       -11.0735   -3.6140   56.4793 H       1  ZINC000481050680    0.0900
     38 H38       -11.4952   -2.6496   54.3557 H       1  ZINC000481050680    0.1200
     39 H39       -10.7664   -1.1387   52.5532 H       1  ZINC000481050680    0.1200
     40 H40        -9.0450    0.5654   52.9957 H       1  ZINC000481050680    0.1200
     41 H41        -8.0529    0.7592   55.2411 H       1  ZINC000481050680    0.1200
     42 H42        -8.7851   -0.7486   57.0448 H       1  ZINC000481050680    0.1200
     43 H43       -11.8042    0.4282   56.6302 H       1  ZINC000481050680    0.1300
     44 H44       -13.6031    1.3249   55.2084 H       1  ZINC000481050680    0.1300
     45 H45       -15.5753   -0.0570   54.6978 H       1  ZINC000481050680    0.1300
     46 H46       -15.7507   -2.3377   55.6087 H       1  ZINC000481050680    0.1400
     47 H47       -10.1998    1.3412   65.1075 H       1  ZINC000481050680    0.1600
@<TRIPOS>BOND
     1     1     2    3
     2     2     3    1
     3     3    30   ar
     4     3     4   ar
     5     4     5   ar
     6     4    31    1
     7     5     6   ar
     8     5    32    1
     9     6     7    1
    10     6    28   ar
    11     7     8    1
    12     7    33    1
    13     7    34    1
    14     8     9    2
    15     8    10    2
    16     8    11   am
    17    11    12    1
    18    11    35    1
    19    12    13    1
    20    12    14    1
    21    12    21    1
    22    14    15    1
    23    14    36    1
    24    14    37    1
    25    15    20   ar
    26    15    16   ar
    27    16    17   ar
    28    16    38    1
    29    17    18   ar
    30    17    39    1
    31    18    19   ar
    32    18    40    1
    33    19    20   ar
    34    19    41    1
    35    20    42    1
    36    21    26   ar
    37    21    22   ar
    38    22    23   ar
    39    22    43    1
    40    23    24   ar
    41    23    44    1
    42    24    25   ar
    43    24    45    1
    44    25    26   ar
    45    25    46    1
    46    26    27    1
    47    28    29    1
    48    28    30   ar
    49    30    47    1
@<TRIPOS>SUBSTRUCTURE
     1 ZINC000481050680        1 TEMP              0 ****  ****    0 ROOT


##########                                Name:    ZINC000440379747
##########                DOCK_Rotatable_Bonds:                   8
##########                         Heavy_Atoms:                  27
##########                    Molecular_Weight:             394.452
##########                DOCK_Rotatable_Bonds:                   8
##########                       Formal_Charge:           0.0199995
##########                     HBond_Acceptors:                  10
##########                        HBond_Donors:                   3
##########                         Heavy_Atoms:                  27
##########                          Grid_Score:          -31.125008
##########                     Grid_vdw_energy:          -27.550716
##########                      Grid_es_energy:           -3.574290
##########           Internal_energy_repulsive:           24.859550

@<TRIPOS>MOLECULE
ZINC000440379747
 49 51 1 0 0
SMALL
USER_CHARGES


@<TRIPOS>ATOM
      1 C1        -11.9799   -2.3168   59.6358 C.3     1  ZINC000440379747   -0.1800
      2 C2        -11.3576   -1.5276   58.5129 C.2     1  ZINC000440379747    0.5200
      3 O3        -11.9457   -1.4054   57.4591 O.2     1  ZINC000440379747   -0.5200
      4 N4        -10.1477   -0.9577   58.6795 N.am    1  ZINC000440379747   -0.5500
      5 C5         -9.3437   -1.0354   59.9020 C.3     1  ZINC000440379747    0.1100
      6 C6         -8.0661   -0.2368   59.5963 C.3     1  ZINC000440379747   -0.0900
      7 C7         -8.2504    0.2486   58.1760 C.ar    1  ZINC000440379747   -0.1100
      8 C8         -7.4313    1.0116   57.3680 C.ar    1  ZINC000440379747   -0.0700
      9 C9         -7.8295    1.3315   56.0762 C.ar    1  ZINC000440379747    0.1200
     10 N10        -7.0009    2.1038   55.2563 N.am    1  ZINC000440379747   -0.6400
     11 C11        -7.4565    3.2607   54.7364 C.2     1  ZINC000440379747    0.5100
     12 O12        -8.5862    3.6322   54.9797 O.2     1  ZINC000440379747   -0.4900
     13 C13        -6.5716    4.0855   53.8608 C.2     1  ZINC000440379747    0.5200
     14 O14        -6.2902    5.2219   54.1807 O.2     1  ZINC000440379747   -0.5100
     15 N15        -6.0854    3.5679   52.7153 N.am    1  ZINC000440379747   -0.5800
     16 C16        -5.2052    4.2676   51.7618 C.3     1  ZINC000440379747    0.1000
     17 C17        -4.4554    3.1382   51.0122 C.3     1  ZINC000440379747   -0.1300
     18 C18        -5.5623    2.0581   50.8886 C.3     1  ZINC000440379747   -0.1600
     19 C19        -6.3399    2.2099   52.2128 C.3     1  ZINC000440379747    0.1500
     20 H20        -5.9912    1.4710   52.9343 H       1  ZINC000440379747    0.1000
     21 C21        -7.8376    2.0245   51.9610 C.3     1  ZINC000440379747   -0.6500
     22 S22        -8.2384    0.2553   51.9738 S.o2    1  ZINC000440379747    2.6200
     23 N23        -7.5078   -0.3436   50.6138 N.am    1  ZINC000440379747   -1.2500
     24 O24        -7.5735   -0.3989   53.0458 O.2     1  ZINC000440379747   -0.9500
     25 O25        -9.6263    0.0568   51.7423 O.2     1  ZINC000440379747   -0.9500
     26 C26        -9.0550    0.8799   55.6027 C.ar    1  ZINC000440379747   -0.1000
     27 C27        -9.8709    0.1185   56.4107 C.ar    1  ZINC000440379747   -0.1400
     28 C28        -9.4723   -0.2101   57.7079 C.ar    1  ZINC000440379747    0.1400
     29 H29       -12.9501   -2.6982   59.3178 H       1  ZINC000440379747    0.1000
     30 H30       -11.3294   -3.1514   59.8974 H       1  ZINC000440379747    0.1000
     31 H31       -12.1102   -1.6716   60.5046 H       1  ZINC000440379747    0.1000
     32 H32        -9.8806   -0.5847   60.7368 H       1  ZINC000440379747    0.0900
     33 H33        -9.0963   -2.0729   60.1266 H       1  ZINC000440379747    0.0900
     34 H34        -7.9742    0.6088   60.2781 H       1  ZINC000440379747    0.0900
     35 H35        -7.1894   -0.8805   59.6673 H       1  ZINC000440379747    0.1000
     36 H36        -6.4797    1.3605   57.7409 H       1  ZINC000440379747    0.1400
     37 H37        -6.0982    1.8068   55.0618 H       1  ZINC000440379747    0.4200
     38 H38        -5.7969    4.8589   51.0630 H       1  ZINC000440379747    0.0800
     39 H39        -4.4984    4.9037   52.2946 H       1  ZINC000440379747    0.1000
     40 H40        -4.1255    3.4739   50.0290 H       1  ZINC000440379747    0.1000
     41 H41        -3.6144    2.7704   51.6002 H       1  ZINC000440379747    0.0800
     42 H42        -6.2064    2.2620   50.0334 H       1  ZINC000440379747    0.1000
     43 H43        -5.1235    1.0630   50.8137 H       1  ZINC000440379747    0.1000
     44 H44        -8.4030    2.5308   52.7433 H       1  ZINC000440379747    0.1500
     45 H45        -8.0982    2.4490   50.9915 H       1  ZINC000440379747    0.1400
     46 H46        -6.5467   -0.2681   50.5062 H       1  ZINC000440379747    0.4100
     47 H47        -8.0409   -0.7699   49.9246 H       1  ZINC000440379747    0.4200
     48 H48        -9.3689    1.1264   54.5992 H       1  ZINC000440379747    0.1400
     49 H49       -10.8226   -0.2294   56.0372 H       1  ZINC000440379747    0.1500
@<TRIPOS>BOND
     1     1     2    1
     2     1    29    1
     3     1    30    1
     4     1    31    1
     5     2     3    2
     6     2     4   am
     7     4    28    1
     8     4     5    1
     9     5     6    1
    10     5    32    1
    11     5    33    1
    12     6     7    1
    13     6    34    1
    14     6    35    1
    15     7    28   ar
    16     7     8   ar
    17     8     9   ar
    18     8    36    1
    19     9    10    1
    20     9    26   ar
    21    10    11   am
    22    10    37    1
    23    11    12    2
    24    11    13    1
    25    13    14    2
    26    13    15   am
    27    15    19    1
    28    15    16    1
    29    16    17    1
    30    16    38    1
    31    16    39    1
    32    17    18    1
    33    17    40    1
    34    17    41    1
    35    18    19    1
    36    18    42    1
    37    18    43    1
    38    19    20    1
    39    19    21    1
    40    21    22    1
    41    21    44    1
    42    21    45    1
    43    22    23   am
    44    22    24    2
    45    22    25    2
    46    23    46    1
    47    23    47    1
    48    26    27   ar
    49    26    48    1
    50    27    28   ar
    51    27    49    1
@<TRIPOS>SUBSTRUCTURE
     1 ZINC000440379747        1 TEMP              0 ****  ****    0 ROOT


##########                                Name:    ZINC001074839487
##########                DOCK_Rotatable_Bonds:                   7
##########                         Heavy_Atoms:                  25
##########                    Molecular_Weight:             344.454
##########                DOCK_Rotatable_Bonds:                   7
##########                       Formal_Charge:          -0.0500005
##########                     HBond_Acceptors:                   5
##########                        HBond_Donors:                   1
##########                         Heavy_Atoms:                  25
##########                          Grid_Score:          -31.121937
##########                     Grid_vdw_energy:          -30.959198
##########                      Grid_es_energy:           -0.162738
##########           Internal_energy_repulsive:           89.550720

@<TRIPOS>MOLECULE
ZINC001074839487
 53 55 1 0 0
SMALL
USER_CHARGES


@<TRIPOS>ATOM
      1 C1         -3.2844    4.4844   53.0526 C.3     1  ZINC001074839487   -0.1500
      2 C2         -3.5801    3.7159   51.7630 C.3     1  ZINC001074839487   -0.1300
      3 C3         -4.9561    3.0550   51.8672 C.3     1  ZINC001074839487   -0.1100
      4 C4         -5.2523    2.2877   50.5771 C.3     1  ZINC001074839487   -0.1400
      5 C5         -6.6320    1.6866   50.6557 C.2     1  ZINC001074839487    0.5100
      6 O6         -7.3750    1.7464   49.6990 O.2     1  ZINC001074839487   -0.5400
      7 N7         -7.0404    1.0826   51.7892 N.am    1  ZINC001074839487   -0.7300
      8 C8         -8.3809    0.4968   51.8651 C.3     1  ZINC001074839487    0.1400
      9 H9         -8.6342    0.0440   50.9064 H       1  ZINC001074839487    0.0900
     10 C10        -8.4083   -0.5743   52.9579 C.3     1  ZINC001074839487   -0.1500
     11 C11        -8.0187    0.0586   54.2974 C.3     1  ZINC001074839487    0.0700
     12 N12        -8.9016    1.2047   54.5536 N.am    1  ZINC001074839487   -0.6000
     13 C13        -9.5908    1.2960   55.7082 C.2     1  ZINC001074839487    0.5600
     14 O14       -10.3179    2.2492   55.9083 O.2     1  ZINC001074839487   -0.5200
     15 C15        -9.4623    0.2367   56.7316 C.ar    1  ZINC001074839487   -0.1300
     16 C16        -8.6637    0.4432   57.8573 C.ar    1  ZINC001074839487   -0.1000
     17 C17        -8.5472   -0.5492   58.8097 C.ar    1  ZINC001074839487   -0.1000
     18 C18        -9.2192   -1.7450   58.6499 C.ar    1  ZINC001074839487   -0.1100
     19 C19        -9.2931   -2.9958   59.4950 C.3     1  ZINC001074839487    0.0900
     20 O20        -9.7920   -4.0305   58.6278 O.3     1  ZINC001074839487   -0.3600
     21 C21       -10.6019   -3.3434   57.6565 C.3     1  ZINC001074839487    0.0900
     22 C22       -10.0149   -1.9566   57.5325 C.ar    1  ZINC001074839487   -0.1400
     23 C23       -10.1440   -0.9727   56.5784 C.ar    1  ZINC001074839487   -0.0400
     24 C24        -9.0195    2.2490   53.5269 C.3     1  ZINC001074839487    0.1500
     25 H25        -8.0659    2.7664   53.4209 H       1  ZINC001074839487    0.0700
     26 C26       -10.1055    3.2473   53.9330 C.3     1  ZINC001074839487   -0.1400
     27 C27        -9.3978    1.5917   52.1960 C.3     1  ZINC001074839487   -0.1400
     28 H28        -4.0451    5.2507   53.2013 H       1  ZINC001074839487    0.0500
     29 H29        -2.3041    4.9551   52.9784 H       1  ZINC001074839487    0.0500
     30 H30        -3.2933    3.7948   53.8967 H       1  ZINC001074839487    0.0500
     31 H31        -3.5711    4.4054   50.9189 H       1  ZINC001074839487    0.0600
     32 H32        -2.8193    2.9495   51.6142 H       1  ZINC001074839487    0.0600
     33 H33        -4.9647    2.3647   52.7107 H       1  ZINC001074839487    0.0700
     34 H34        -5.7167    3.8213   52.0169 H       1  ZINC001074839487    0.0700
     35 H35        -5.2010    2.9699   49.7287 H       1  ZINC001074839487    0.0900
     36 H36        -4.5168    1.4934   50.4498 H       1  ZINC001074839487    0.0900
     37 H37        -6.4466    1.0359   52.5549 H       1  ZINC001074839487    0.4000
     38 H38        -9.4118   -0.9932   53.0316 H       1  ZINC001074839487    0.0800
     39 H39        -7.7007   -1.3653   52.7097 H       1  ZINC001074839487    0.0800
     40 H40        -8.1321   -0.6755   55.0951 H       1  ZINC001074839487    0.1200
     41 H41        -6.9835    0.3973   54.2542 H       1  ZINC001074839487    0.0700
     42 H42        -8.1381    1.3783   57.9834 H       1  ZINC001074839487    0.1500
     43 H43        -7.9297   -0.3901   59.6814 H       1  ZINC001074839487    0.1400
     44 H44        -8.3016   -3.2597   59.8628 H       1  ZINC001074839487    0.1000
     45 H45        -9.9763   -2.8445   60.3307 H       1  ZINC001074839487    0.0800
     46 H46       -10.5552   -3.8581   56.6968 H       1  ZINC001074839487    0.1000
     47 H47       -11.6340   -3.2848   58.0021 H       1  ZINC001074839487    0.0800
     48 H48       -10.7673   -1.1369   55.7118 H       1  ZINC001074839487    0.1400
     49 H49        -9.7856    3.7905   54.8222 H       1  ZINC001074839487    0.0800
     50 H50       -10.2748    3.9514   53.1183 H       1  ZINC001074839487    0.0500
     51 H51       -11.0299    2.7111   54.1477 H       1  ZINC001074839487    0.0700
     52 H52        -9.3945    2.3421   51.4056 H       1  ZINC001074839487    0.0900
     53 H53       -10.3920    1.1523   52.2769 H       1  ZINC001074839487    0.0900
@<TRIPOS>BOND
     1     1     2    1
     2     1    28    1
     3     1    29    1
     4     1    30    1
     5     2     3    1
     6     2    31    1
     7     2    32    1
     8     3     4    1
     9     3    33    1
    10     3    34    1
    11     4     5    1
    12     4    35    1
    13     4    36    1
    14     5     6    2
    15     5     7   am
    16     7     8    1
    17     7    37    1
    18     8     9    1
    19     8    27    1
    20     8    10    1
    21    10    11    1
    22    10    38    1
    23    10    39    1
    24    11    12    1
    25    11    40    1
    26    11    41    1
    27    12    13   am
    28    12    24    1
    29    13    14    2
    30    13    15    1
    31    15    23   ar
    32    15    16   ar
    33    16    17   ar
    34    16    42    1
    35    17    18   ar
    36    17    43    1
    37    18    22   ar
    38    18    19    1
    39    19    20    1
    40    19    44    1
    41    19    45    1
    42    20    21    1
    43    21    22    1
    44    21    46    1
    45    21    47    1
    46    22    23   ar
    47    23    48    1
    48    24    25    1
    49    24    26    1
    50    24    27    1
    51    26    49    1
    52    26    50    1
    53    26    51    1
    54    27    52    1
    55    27    53    1
@<TRIPOS>SUBSTRUCTURE
     1 ZINC001074839487        1 TEMP              0 ****  ****    0 ROOT


##########                                Name:    ZINC000265786263
##########                DOCK_Rotatable_Bonds:                   7
##########                         Heavy_Atoms:                  28
##########                    Molecular_Weight:             386.451
##########                DOCK_Rotatable_Bonds:                   7
##########                       Formal_Charge:           0.0499992
##########                     HBond_Acceptors:                   8
##########                        HBond_Donors:                   2
##########                         Heavy_Atoms:                  28
##########                          Grid_Score:          -31.109800
##########                     Grid_vdw_energy:          -30.068478
##########                      Grid_es_energy:           -1.041323
##########           Internal_energy_repulsive:           22.948948

@<TRIPOS>MOLECULE
ZINC000265786263
 54 57 1 0 0
SMALL
USER_CHARGES


@<TRIPOS>ATOM
      1 C1         -9.1904    0.1890   62.7481 C.3     1  ZINC000265786263   -0.1500
      2 C2         -9.2363    0.2891   61.2220 C.3     1  ZINC000265786263    0.1600
      3 C3         -9.4304    1.7426   60.7852 C.3     1  ZINC000265786263   -0.1600
      4 C4         -8.1784    2.6101   60.6411 C.3     1  ZINC000265786263   -0.1600
      5 C5         -8.9279    2.1355   59.3946 C.3     1  ZINC000265786263   -0.1600
      6 N6         -8.0116   -0.2746   60.6286 N.am    1  ZINC000265786263   -0.7100
      7 C7         -8.3975   -1.3082   59.8588 C.2     1  ZINC000265786263    0.7100
      8 O8         -7.6282   -1.9990   59.2199 O.2     1  ZINC000265786263   -0.5400
      9 N9         -9.7228   -1.4905   59.8750 N.am    1  ZINC000265786263   -0.5600
     10 C10       -10.4180   -2.5425   59.1290 C.3     1  ZINC000265786263    0.1000
     11 C11       -11.5609   -1.9378   58.3549 C.2     1  ZINC000265786263    0.5100
     12 O12       -12.7046   -2.1455   58.7006 O.2     1  ZINC000265786263   -0.5300
     13 N13       -11.3119   -1.1662   57.2783 N.am    1  ZINC000265786263   -0.6100
     14 C14        -9.9327   -0.9080   56.8372 C.3     1  ZINC000265786263    0.1100
     15 C15        -9.8325   -1.2255   55.3415 C.3     1  ZINC000265786263    0.0400
     16 N16       -10.8672   -0.4776   54.6150 N.3     1  ZINC000265786263   -0.5300
     17 C17       -10.6973   -0.6194   53.1627 C.3     1  ZINC000265786263    0.0900
     18 C18        -9.4339    0.0813   52.7339 C.ar    1  ZINC000265786263   -0.0600
     19 C19        -8.6848   -0.4243   51.6879 C.ar    1  ZINC000265786263   -0.1300
     20 C20        -7.5249    0.2164   51.2920 C.ar    1  ZINC000265786263   -0.1000
     21 C21        -7.1122    1.3635   51.9412 C.ar    1  ZINC000265786263   -0.1400
     22 C22        -7.8624    1.8729   52.9915 C.ar    1  ZINC000265786263    0.1100
     23 O23        -7.4585    3.0017   53.6316 O.3     1  ZINC000265786263   -0.5000
     24 C24        -9.0283    1.2317   53.3830 C.ar    1  ZINC000265786263   -0.1200
     25 C25       -12.2141   -0.8912   55.0303 C.3     1  ZINC000265786263    0.0400
     26 C26       -12.4123   -0.5650   56.5096 C.3     1  ZINC000265786263    0.1200
     27 C27       -10.3393   -0.5875   60.6629 C.2     1  ZINC000265786263    0.5400
     28 O28       -11.5285   -0.4960   60.8800 O.2     1  ZINC000265786263   -0.4500
     29 H29        -9.0142   -0.8466   63.0390 H       1  ZINC000265786263    0.0700
     30 H30        -8.3843    0.8158   63.1292 H       1  ZINC000265786263    0.0800
     31 H31       -10.1402    0.5263   63.1630 H       1  ZINC000265786263    0.0900
     32 H32       -10.3384    2.2249   61.1471 H       1  ZINC000265786263    0.1100
     33 H33        -8.2626    3.6636   60.9082 H       1  ZINC000265786263    0.1000
     34 H34        -7.2164    2.1455   60.8574 H       1  ZINC000265786263    0.1100
     35 H35        -8.4590    1.3585   58.7907 H       1  ZINC000265786263    0.1000
     36 H36        -9.5051    2.8766   58.8417 H       1  ZINC000265786263    0.1000
     37 H37        -7.1039    0.0387   60.7656 H       1  ZINC000265786263    0.4400
     38 H38        -9.7222   -3.0181   58.4377 H       1  ZINC000265786263    0.1300
     39 H39       -10.8043   -3.2869   59.8252 H       1  ZINC000265786263    0.1300
     40 H40        -9.6842    0.1397   57.0066 H       1  ZINC000265786263    0.0900
     41 H41        -9.2451   -1.5449   57.3937 H       1  ZINC000265786263    0.0900
     42 H42        -8.8482   -0.9359   54.9734 H       1  ZINC000265786263    0.0900
     43 H43        -9.9793   -2.2943   55.1859 H       1  ZINC000265786263    0.0400
     44 H44       -10.6314   -1.6767   52.9061 H       1  ZINC000265786263    0.0900
     45 H45       -11.5511   -0.1741   52.6519 H       1  ZINC000265786263    0.0500
     46 H46        -9.0057   -1.3213   51.1792 H       1  ZINC000265786263    0.1200
     47 H47        -6.9413   -0.1807   50.4747 H       1  ZINC000265786263    0.1300
     48 H48        -6.2061    1.8633   51.6319 H       1  ZINC000265786263    0.1300
     49 H49        -6.6375    3.3777   53.2856 H       1  ZINC000265786263    0.3900
     50 H50        -9.6139    1.6263   54.2002 H       1  ZINC000265786263    0.1300
     51 H51       -12.9574   -0.3591   54.4364 H       1  ZINC000265786263    0.1000
     52 H52       -12.3279   -1.9646   54.8790 H       1  ZINC000265786263    0.0400
     53 H53       -13.3642   -0.9724   56.8502 H       1  ZINC000265786263    0.1000
     54 H54       -12.4019    0.5158   56.6509 H       1  ZINC000265786263    0.0800
@<TRIPOS>BOND
     1     1     2    1
     2     1    29    1
     3     1    30    1
     4     1    31    1
     5     2    27    1
     6     2     3    1
     7     2     6    1
     8     3     5    1
     9     3     4    1
    10     3    32    1
    11     4     5    1
    12     4    33    1
    13     4    34    1
    14     5    35    1
    15     5    36    1
    16     6     7   am
    17     6    37    1
    18     7     8    2
    19     7     9   am
    20     9    10    1
    21     9    27   am
    22    10    11    1
    23    10    38    1
    24    10    39    1
    25    11    12    2
    26    11    13   am
    27    13    26    1
    28    13    14    1
    29    14    15    1
    30    14    40    1
    31    14    41    1
    32    15    16    1
    33    15    42    1
    34    15    43    1
    35    16    17    1
    36    16    25    1
    37    17    18    1
    38    17    44    1
    39    17    45    1
    40    18    24   ar
    41    18    19   ar
    42    19    20   ar
    43    19    46    1
    44    20    21   ar
    45    20    47    1
    46    21    22   ar
    47    21    48    1
    48    22    23    1
    49    22    24   ar
    50    23    49    1
    51    24    50    1
    52    25    26    1
    53    25    51    1
    54    25    52    1
    55    26    53    1
    56    26    54    1
    57    27    28    2
@<TRIPOS>SUBSTRUCTURE
     1 ZINC000265786263        1 TEMP              0 ****  ****    0 ROOT


##########                                Name:    ZINC000572148596
##########                DOCK_Rotatable_Bonds:                   4
##########                         Heavy_Atoms:                  26
##########                    Molecular_Weight:             371.463
##########                DOCK_Rotatable_Bonds:                   4
##########                       Formal_Charge:          -0.0199999
##########                     HBond_Acceptors:                   8
##########                        HBond_Donors:                   0
##########                         Heavy_Atoms:                  26
##########                          Grid_Score:          -31.089008
##########                     Grid_vdw_energy:          -31.117880
##########                      Grid_es_energy:            0.028872
##########           Internal_energy_repulsive:            6.347108

@<TRIPOS>MOLECULE
ZINC000572148596
 47 50 1 0 0
SMALL
USER_CHARGES


@<TRIPOS>ATOM
      1 C1          2.8194    1.5016   48.3843 C.3     1  ZINC000572148596   -0.1400
      2 C2          3.0212    2.0871   49.7835 C.3     1  ZINC000572148596    0.0800
      3 H3          3.7294    2.9141   49.7326 H       1  ZINC000572148596    0.1200
      4 C4          1.7023    2.5871   50.3139 C.2     1  ZINC000572148596    0.1800
      5 N5          1.5365    3.5321   51.1917 N.2     1  ZINC000572148596   -0.3500
      6 O6          0.3565    3.7044   51.4127 O.3     1  ZINC000572148596    0.0900
      7 C7         -0.3714    2.8554   50.6704 C.2     1  ZINC000572148596    0.2300
      8 C8         -1.8433    2.7447   50.6455 C.ar    1  ZINC000572148596   -0.1200
      9 C9         -2.4747    1.8537   49.7655 C.ar    1  ZINC000572148596   -0.0100
     10 C10        -3.8425    1.7840   49.7765 C.ar    1  ZINC000572148596   -0.1900
     11 C11        -4.5611    2.5929   50.6537 C.ar    1  ZINC000572148596    0.3400
     12 N12        -5.9457    2.5245   50.6677 N.3     1  ZINC000572148596   -0.4700
     13 C13        -6.5192    3.6176   51.4661 C.3     1  ZINC000572148596    0.0300
     14 C14        -8.0470    3.5393   51.4057 C.3     1  ZINC000572148596    0.0900
     15 H15        -8.4766    4.3131   52.0421 H       1  ZINC000572148596    0.1100
     16 C16        -8.5127    3.7476   49.9632 C.3     1  ZINC000572148596   -0.1800
     17 O17        -8.4719    2.2532   51.8645 O.3     1  ZINC000572148596   -0.3700
     18 C18        -7.9327    1.1652   51.1090 C.3     1  ZINC000572148596    0.0800
     19 H19        -8.2610    1.2438   50.0726 H       1  ZINC000572148596    0.0700
     20 C20        -8.4204   -0.1589   51.7004 C.3     1  ZINC000572148596   -0.1400
     21 C21        -6.4037    1.2195   51.1663 C.3     1  ZINC000572148596    0.0300
     22 N22        -3.9394    3.4269   51.4756 N.ar    1  ZINC000572148596   -0.5200
     23 C23        -2.6260    3.5208   51.5012 C.ar    1  ZINC000572148596    0.1900
     24 N24         0.4865    2.1418   49.9613 N.2     1  ZINC000572148596   -0.4700
     25 C25         3.5600    1.0203   50.7015 C.2     1  ZINC000572148596    0.0400
     26 N26         4.8121    0.7779   50.8972 N.2     1  ZINC000572148596   -0.4500
     27 C27         5.1123   -0.1931   51.7360 C.2     1  ZINC000572148596    0.0400
     28 C28         4.0543   -0.8039   52.2781 C.2     1  ZINC000572148596   -0.2500
     29 S29         2.6008   -0.0391   51.6401 S.3     1  ZINC000572148596    0.1400
     30 H30         2.1113    0.6745   48.4353 H       1  ZINC000572148596    0.0800
     31 H31         2.4298    2.2732   47.7204 H       1  ZINC000572148596    0.0700
     32 H32         3.7734    1.1400   48.0007 H       1  ZINC000572148596    0.0800
     33 H33        -1.8956    1.2369   49.0943 H       1  ZINC000572148596    0.1500
     34 H34        -4.3590    1.1083   49.1109 H       1  ZINC000572148596    0.1500
     35 H35        -6.1906    3.5236   52.5011 H       1  ZINC000572148596    0.0600
     36 H36        -6.1877    4.5749   51.0637 H       1  ZINC000572148596    0.1000
     37 H37        -8.0841    2.9727   49.3276 H       1  ZINC000572148596    0.0700
     38 H38        -9.6004    3.6917   49.9209 H       1  ZINC000572148596    0.0600
     39 H39        -8.1852    4.7267   49.6135 H       1  ZINC000572148596    0.0700
     40 H40        -9.5091   -0.1948   51.6621 H       1  ZINC000572148596    0.0700
     41 H41        -8.0090   -0.9876   51.1241 H       1  ZINC000572148596    0.0700
     42 H42        -8.0904   -0.2376   52.7363 H       1  ZINC000572148596    0.0600
     43 H43        -5.9878    0.4262   50.5452 H       1  ZINC000572148596    0.1000
     44 H44        -6.0732    1.0872   52.1966 H       1  ZINC000572148596    0.0600
     45 H45        -2.1513    4.2107   52.1832 H       1  ZINC000572148596    0.1700
     46 H46         6.1297   -0.4727   51.9663 H       1  ZINC000572148596    0.1800
     47 H47         4.0849   -1.6196   52.9853 H       1  ZINC000572148596    0.1800
@<TRIPOS>BOND
     1     1     2    1
     2     1    30    1
     3     1    31    1
     4     1    32    1
     5     2     3    1
     6     2     4    1
     7     2    25    1
     8     4    24    1
     9     4     5    2
    10     5     6    1
    11     6     7    1
    12     7     8    1
    13     7    24    2
    14     8    23   ar
    15     8     9   ar
    16     9    10   ar
    17     9    33    1
    18    10    11   ar
    19    10    34    1
    20    11    12    1
    21    11    22   ar
    22    12    21    1
    23    12    13    1
    24    13    14    1
    25    13    35    1
    26    13    36    1
    27    14    15    1
    28    14    16    1
    29    14    17    1
    30    16    37    1
    31    16    38    1
    32    16    39    1
    33    17    18    1
    34    18    19    1
    35    18    20    1
    36    18    21    1
    37    20    40    1
    38    20    41    1
    39    20    42    1
    40    21    43    1
    41    21    44    1
    42    22    23   ar
    43    23    45    1
    44    25    29    1
    45    25    26    2
    46    26    27    1
    47    27    28    2
    48    27    46    1
    49    28    29    1
    50    28    47    1
@<TRIPOS>SUBSTRUCTURE
     1 ZINC000572148596        1 TEMP              0 ****  ****    0 ROOT


##########                                Name:    ZINC000469435497
##########                DOCK_Rotatable_Bonds:                   6
##########                         Heavy_Atoms:                  27
##########                    Molecular_Weight:             364.444
##########                DOCK_Rotatable_Bonds:                   6
##########                       Formal_Charge:           0.0300001
##########                     HBond_Acceptors:                   5
##########                        HBond_Donors:                   2
##########                         Heavy_Atoms:                  27
##########                          Grid_Score:          -31.012043
##########                     Grid_vdw_energy:          -31.002810
##########                      Grid_es_energy:           -0.009233
##########           Internal_energy_repulsive:            4.717660

@<TRIPOS>MOLECULE
ZINC000469435497
 51 54 1 0 0
SMALL
USER_CHARGES


@<TRIPOS>ATOM
      1 C1        -11.9103   -0.8903   57.2599 C.3     1  ZINC000469435497   -0.1600
      2 C2        -10.7940   -1.7988   56.7408 C.3     1  ZINC000469435497    0.1000
      3 C3        -11.0282   -3.2460   57.1784 C.3     1  ZINC000469435497   -0.1400
      4 C4        -10.6780   -1.6994   55.2014 C.3     1  ZINC000469435497   -0.1000
      5 C5         -9.6253   -0.6206   55.0350 C.ar    1  ZINC000469435497   -0.1500
      6 C6         -9.2483    0.1419   53.9528 C.ar    1  ZINC000469435497   -0.0700
      7 C7         -8.2349    1.0833   54.0872 C.ar    1  ZINC000469435497    0.1100
      8 N8         -7.8469    1.8626   52.9894 N.am    1  ZINC000469435497   -0.6600
      9 C9         -6.8520    1.4427   52.1830 C.2     1  ZINC000469435497    0.5100
     10 O10        -6.2926    0.3903   52.4076 O.2     1  ZINC000469435497   -0.5200
     11 C11        -6.4346    2.2810   51.0022 C.3     1  ZINC000469435497    0.1000
     12 N12        -4.9985    2.1128   50.7671 N.am    1  ZINC000469435497   -0.7200
     13 C13        -4.1553    3.1419   50.9824 C.2     1  ZINC000469435497    0.5700
     14 O14        -4.5867    4.2101   51.3703 O.2     1  ZINC000469435497   -0.5300
     15 C15        -2.7057    2.9716   50.7469 C.ar    1  ZINC000469435497   -0.1400
     16 C16        -1.7879    3.8028   51.3904 C.ar    1  ZINC000469435497   -0.0800
     17 C17        -0.4381    3.6367   51.1648 C.ar    1  ZINC000469435497   -0.1100
     18 C18         0.0129    2.6494   50.3027 C.ar    1  ZINC000469435497   -0.0700
     19 C19         1.4229    2.2752   49.8967 C.3     1  ZINC000469435497   -0.0900
     20 C20         1.3066    0.8616   49.2884 C.3     1  ZINC000469435497   -0.1200
     21 C21        -0.1512    0.8369   48.7824 C.3     1  ZINC000469435497   -0.0800
     22 C22        -0.8925    1.8218   49.6614 C.ar    1  ZINC000469435497   -0.1100
     23 C23        -2.2475    1.9756   49.8847 C.ar    1  ZINC000469435497   -0.0400
     24 C24        -7.6093    1.2471   55.3157 C.ar    1  ZINC000469435497   -0.1000
     25 C25        -7.9873    0.4785   56.3965 C.ar    1  ZINC000469435497   -0.1200
     26 C26        -9.0001   -0.4683   56.2663 C.ar    1  ZINC000469435497    0.1000
     27 O27        -9.5092   -1.3331   57.1876 O.3     1  ZINC000469435497   -0.3000
     28 H28       -11.7412    0.1286   56.9114 H       1  ZINC000469435497    0.0600
     29 H29       -12.8710   -1.2466   56.8884 H       1  ZINC000469435497    0.0800
     30 H30       -11.9139   -0.9056   58.3498 H       1  ZINC000469435497    0.0700
     31 H31       -11.9752   -3.6001   56.7708 H       1  ZINC000469435497    0.0800
     32 H32       -10.2167   -3.8731   56.8093 H       1  ZINC000469435497    0.0700
     33 H33       -11.0598   -3.2959   58.2668 H       1  ZINC000469435497    0.0700
     34 H34       -10.3392   -2.6434   54.7746 H       1  ZINC000469435497    0.0900
     35 H35       -11.6251   -1.3911   54.7585 H       1  ZINC000469435497    0.0900
     36 H36        -9.7392    0.0085   53.0001 H       1  ZINC000469435497    0.1400
     37 H37        -8.2944    2.7043   52.8097 H       1  ZINC000469435497    0.4200
     38 H38        -6.9872    1.9635   50.1179 H       1  ZINC000469435497    0.1100
     39 H39        -6.6488    3.3299   51.2074 H       1  ZINC000469435497    0.1100
     40 H40        -4.6543    1.2607   50.4565 H       1  ZINC000469435497    0.4100
     41 H41        -2.1339    4.5739   52.0629 H       1  ZINC000469435497    0.1300
     42 H42         0.2723    4.2802   51.6626 H       1  ZINC000469435497    0.1300
     43 H43         1.8012    2.9769   49.1533 H       1  ZINC000469435497    0.0900
     44 H44         2.0760    2.2588   50.7693 H       1  ZINC000469435497    0.0800
     45 H45         2.0058    0.7370   48.4615 H       1  ZINC000469435497    0.0800
     46 H46         1.4655    0.0980   50.0498 H       1  ZINC000469435497    0.0700
     47 H47        -0.1952    1.1525   47.7402 H       1  ZINC000469435497    0.0800
     48 H48        -0.5733   -0.1618   48.8941 H       1  ZINC000469435497    0.0800
     49 H49        -2.9530    1.3258   49.3882 H       1  ZINC000469435497    0.1400
     50 H50        -6.8232    1.9794   55.4253 H       1  ZINC000469435497    0.1400
     51 H51        -7.4956    0.6116   57.3488 H       1  ZINC000469435497    0.1300
@<TRIPOS>BOND
     1     1     2    1
     2     1    28    1
     3     1    29    1
     4     1    30    1
     5     2    27    1
     6     2     3    1
     7     2     4    1
     8     3    31    1
     9     3    32    1
    10     3    33    1
    11     4     5    1
    12     4    34    1
    13     4    35    1
    14     5    26   ar
    15     5     6   ar
    16     6     7   ar
    17     6    36    1
    18     7     8    1
    19     7    24   ar
    20     8     9   am
    21     8    37    1
    22     9    10    2
    23     9    11    1
    24    11    12    1
    25    11    38    1
    26    11    39    1
    27    12    13   am
    28    12    40    1
    29    13    14    2
    30    13    15    1
    31    15    23   ar
    32    15    16   ar
    33    16    17   ar
    34    16    41    1
    35    17    18   ar
    36    17    42    1
    37    18    22   ar
    38    18    19    1
    39    19    20    1
    40    19    43    1
    41    19    44    1
    42    20    21    1
    43    20    45    1
    44    20    46    1
    45    21    22    1
    46    21    47    1
    47    21    48    1
    48    22    23   ar
    49    23    49    1
    50    24    25   ar
    51    24    50    1
    52    25    26   ar
    53    25    51    1
    54    26    27    1
@<TRIPOS>SUBSTRUCTURE
     1 ZINC000469435497        1 TEMP              0 ****  ****    0 ROOT


##########                                Name:    ZINC000918875053
##########                DOCK_Rotatable_Bonds:                   6
##########                         Heavy_Atoms:                  26
##########                    Molecular_Weight:             359.357
##########                DOCK_Rotatable_Bonds:                   6
##########                       Formal_Charge:           0.0200003
##########                     HBond_Acceptors:                   8
##########                        HBond_Donors:                   0
##########                         Heavy_Atoms:                  26
##########                          Grid_Score:          -31.001102
##########                     Grid_vdw_energy:          -30.456837
##########                      Grid_es_energy:           -0.544266
##########           Internal_energy_repulsive:            6.290599

@<TRIPOS>MOLECULE
ZINC000918875053
 44 47 1 0 0
SMALL
USER_CHARGES


@<TRIPOS>ATOM
      1 C1        -11.3004   -2.3573   58.0661 C.3     1  ZINC000918875053   -0.1700
      2 C2        -10.1341   -1.4480   57.6737 C.3     1  ZINC000918875053    0.1900
      3 H3         -9.4197   -2.0117   57.0737 H       1  ZINC000918875053    0.1400
      4 O4        -10.6347   -0.3247   56.9017 O.3     1  ZINC000918875053   -0.3400
      5 C5         -9.7235    0.4504   56.2927 C.2     1  ZINC000918875053    0.4800
      6 O6         -9.5237    1.5739   56.6899 O.2     1  ZINC000918875053   -0.4900
      7 C7         -8.9499   -0.0806   55.1134 C.3     1  ZINC000918875053   -0.0900
      8 H8         -8.2437   -0.8494   55.4270 H       1  ZINC000918875053    0.1400
      9 C9         -9.9044   -0.6181   54.0221 C.3     1  ZINC000918875053   -0.1400
     10 C10        -9.2356   -0.2321   52.7213 C.2     1  ZINC000918875053    0.5300
     11 O11        -9.5056   -0.7003   51.6355 O.2     1  ZINC000918875053   -0.5000
     12 N12        -8.2986    0.7056   52.9438 N.am    1  ZINC000918875053   -0.5800
     13 C13        -7.4927    1.2696   51.9468 C.ar    1  ZINC000918875053    0.1000
     14 C14        -6.3290    0.6277   51.5473 C.ar    1  ZINC000918875053   -0.0800
     15 C15        -5.5360    1.1862   50.5632 C.ar    1  ZINC000918875053   -0.1200
     16 C16        -5.8996    2.3837   49.9759 C.ar    1  ZINC000918875053   -0.0800
     17 C17        -7.0585    3.0274   50.3706 C.ar    1  ZINC000918875053   -0.1500
     18 C18        -7.8598    2.4715   51.3507 C.ar    1  ZINC000918875053    0.1100
     19 F19        -8.9919    3.0998   51.7360 F       1  ZINC000918875053   -0.1300
     20 C20        -8.2275    1.0623   54.3663 C.3     1  ZINC000918875053    0.1200
     21 C21        -9.4536   -0.9387   58.9181 C.2     1  ZINC000918875053    0.1800
     22 N22       -10.0303   -0.6414   60.0576 N.2     1  ZINC000918875053   -0.4600
     23 C23        -9.0390   -0.2321   60.8692 C.2     1  ZINC000918875053    0.2100
     24 C24        -9.1867    0.2215   62.2987 C.3     1  ZINC000918875053   -0.0900
     25 C25        -8.0837   -0.1736   63.2828 C.3     1  ZINC000918875053   -0.1600
     26 C26        -8.2038    1.2766   62.8101 C.3     1  ZINC000918875053   -0.1500
     27 N27        -7.9307   -0.2999   60.1944 N.2     1  ZINC000918875053   -0.3700
     28 O28        -8.1462   -0.7091   59.0730 O.3     1  ZINC000918875053    0.1000
     29 H29       -11.7926   -2.7257   57.1660 H       1  ZINC000918875053    0.0900
     30 H30       -10.9246   -3.2004   58.6457 H       1  ZINC000918875053    0.0900
     31 H31       -12.0147   -1.7936   58.6661 H       1  ZINC000918875053    0.0800
     32 H32        -9.9974   -1.7016   54.0965 H       1  ZINC000918875053    0.1300
     33 H33       -10.8826   -0.1439   54.1035 H       1  ZINC000918875053    0.1100
     34 H34        -6.0432   -0.3076   52.0057 H       1  ZINC000918875053    0.1400
     35 H35        -4.6304    0.6864   50.2524 H       1  ZINC000918875053    0.1400
     36 H36        -5.2772    2.8177   49.2075 H       1  ZINC000918875053    0.1400
     37 H37        -7.3397    3.9628   49.9098 H       1  ZINC000918875053    0.1400
     38 H38        -8.7370    2.0094   54.5436 H       1  ZINC000918875053    0.1000
     39 H39        -7.1879    1.1264   54.6876 H       1  ZINC000918875053    0.1000
     40 H40       -10.2084    0.2602   62.6765 H       1  ZINC000918875053    0.1400
     41 H41        -8.3796   -0.3950   64.3082 H       1  ZINC000918875053    0.1100
     42 H42        -7.2513   -0.7615   62.8961 H       1  ZINC000918875053    0.1000
     43 H43        -7.4505    1.6428   62.1126 H       1  ZINC000918875053    0.1000
     44 H44        -8.5789    2.0093   63.5247 H       1  ZINC000918875053    0.1100
@<TRIPOS>BOND
     1     1     2    1
     2     1    29    1
     3     1    30    1
     4     1    31    1
     5     2     3    1
     6     2     4    1
     7     2    21    1
     8     4     5    1
     9     5     6    2
    10     5     7    1
    11     7     8    1
    12     7    20    1
    13     7     9    1
    14     9    10    1
    15     9    32    1
    16     9    33    1
    17    10    11    2
    18    10    12   am
    19    12    13    1
    20    12    20    1
    21    13    18   ar
    22    13    14   ar
    23    14    15   ar
    24    14    34    1
    25    15    16   ar
    26    15    35    1
    27    16    17   ar
    28    16    36    1
    29    17    18   ar
    30    17    37    1
    31    18    19    1
    32    20    38    1
    33    20    39    1
    34    21    28    1
    35    21    22    2
    36    22    23    1
    37    23    24    1
    38    23    27    2
    39    24    26    1
    40    24    25    1
    41    24    40    1
    42    25    26    1
    43    25    41    1
    44    25    42    1
    45    26    43    1
    46    26    44    1
    47    27    28    1
@<TRIPOS>SUBSTRUCTURE
     1 ZINC000918875053        1 TEMP              0 ****  ****    0 ROOT


##########                                Name:    ZINC000171059239
##########                DOCK_Rotatable_Bonds:                   8
##########                         Heavy_Atoms:                  25
##########                    Molecular_Weight:              333.39
##########                DOCK_Rotatable_Bonds:                   8
##########                       Formal_Charge:         1.10269e-06
##########                     HBond_Acceptors:                   5
##########                        HBond_Donors:                   4
##########                         Heavy_Atoms:                  25
##########                          Grid_Score:          -30.993549
##########                     Grid_vdw_energy:          -29.658815
##########                      Grid_es_energy:           -1.334735
##########           Internal_energy_repulsive:            7.069871

@<TRIPOS>MOLECULE
ZINC000171059239
 44 46 1 0 0
SMALL
USER_CHARGES


@<TRIPOS>ATOM
      1 N1         -8.0765   -0.5436   60.9571 N.am    1  ZINC000171059239   -0.8500
      2 C2         -8.7121   -0.2961   59.7947 C.2     1  ZINC000171059239    0.5600
      3 O3         -8.8231    0.8460   59.3939 O.2     1  ZINC000171059239   -0.5400
      4 C4         -9.2747   -1.4139   59.0072 C.ar    1  ZINC000171059239   -0.1400
      5 C5         -9.0262   -2.7336   59.3871 C.ar    1  ZINC000171059239   -0.0900
      6 C6         -9.5546   -3.7721   58.6480 C.ar    1  ZINC000171059239   -0.1200
      7 C7        -10.3286   -3.5073   57.5325 C.ar    1  ZINC000171059239   -0.0800
      8 C8        -10.5784   -2.2011   57.1501 C.ar    1  ZINC000171059239   -0.0900
      9 C9        -11.4224   -1.9222   55.9332 C.3     1  ZINC000171059239   -0.0900
     10 C10       -10.5359   -1.9243   54.6862 C.3     1  ZINC000171059239    0.1400
     11 N11        -9.7188   -0.7085   54.6659 N.am    1  ZINC000171059239   -0.7400
     12 C12        -9.2223   -0.2497   53.5000 C.2     1  ZINC000171059239    0.7000
     13 O13        -9.4537   -0.8440   52.4648 O.2     1  ZINC000171059239   -0.5700
     14 N14        -8.4691    0.8679   53.4815 N.am    1  ZINC000171059239   -0.6800
     15 C15        -7.9548    1.3432   52.2736 C.ar    1  ZINC000171059239    0.1700
     16 C16        -8.7056    2.2395   51.4837 C.ar    1  ZINC000171059239   -0.0600
     17 C17        -9.9782    2.6744   51.8859 C.ar    1  ZINC000171059239   -0.1100
     18 C18       -10.6745    3.5401   51.0988 C.ar    1  ZINC000171059239   -0.1100
     19 C19       -10.1426    4.0024   49.8966 C.ar    1  ZINC000171059239   -0.1200
     20 C20        -8.9120    3.6020   49.4752 C.ar    1  ZINC000171059239   -0.1000
     21 C21        -8.1636    2.7092   50.2618 C.ar    1  ZINC000171059239   -0.0400
     22 C22        -6.8896    2.2751   49.8583 C.ar    1  ZINC000171059239   -0.1200
     23 C23        -6.1868    1.4100   50.6404 C.ar    1  ZINC000171059239   -0.0900
     24 C24        -6.7068    0.9456   51.8448 C.ar    1  ZINC000171059239   -0.1200
     25 C25       -10.0614   -1.1536   57.8838 C.ar    1  ZINC000171059239   -0.0500
     26 H26        -7.7084    0.1898   61.4743 H       1  ZINC000171059239    0.4100
     27 H27        -7.9903   -1.4549   61.2783 H       1  ZINC000171059239    0.4000
     28 H28        -8.4214   -2.9415   60.2573 H       1  ZINC000171059239    0.1300
     29 H29        -9.3630   -4.7938   58.9409 H       1  ZINC000171059239    0.1300
     30 H30       -10.7396   -4.3238   56.9572 H       1  ZINC000171059239    0.1300
     31 H31       -12.1870   -2.6931   55.8368 H       1  ZINC000171059239    0.0800
     32 H32       -11.9000   -0.9479   56.0378 H       1  ZINC000171059239    0.0800
     33 H33        -9.8856   -2.7988   54.7043 H       1  ZINC000171059239    0.0700
     34 H34       -11.1627   -1.9558   53.7950 H       1  ZINC000171059239    0.0700
     35 H35        -9.5351   -0.2336   55.4916 H       1  ZINC000171059239    0.4000
     36 H36        -8.2845    1.3420   54.3073 H       1  ZINC000171059239    0.4100
     37 H37       -10.4030    2.3238   52.8149 H       1  ZINC000171059239    0.1200
     38 H38       -11.6534    3.8732   51.4107 H       1  ZINC000171059239    0.1200
     39 H39       -10.7156    4.6881   49.2902 H       1  ZINC000171059239    0.1200
     40 H40        -8.5125    3.9682   48.5409 H       1  ZINC000171059239    0.1300
     41 H41        -6.4684    2.6270   48.9282 H       1  ZINC000171059239    0.1300
     42 H42        -5.2083    1.0816   50.3225 H       1  ZINC000171059239    0.1300
     43 H43        -6.1288    0.2602   52.4469 H       1  ZINC000171059239    0.1400
     44 H44       -10.2573   -0.1346   57.5846 H       1  ZINC000171059239    0.1400
@<TRIPOS>BOND
     1     1     2   am
     2     1    26    1
     3     1    27    1
     4     2     3    2
     5     2     4    1
     6     4    25   ar
     7     4     5   ar
     8     5     6   ar
     9     5    28    1
    10     6     7   ar
    11     6    29    1
    12     7     8   ar
    13     7    30    1
    14     8     9    1
    15     8    25   ar
    16     9    10    1
    17     9    31    1
    18     9    32    1
    19    10    11    1
    20    10    33    1
    21    10    34    1
    22    11    12   am
    23    11    35    1
    24    12    13    2
    25    12    14   am
    26    14    15    1
    27    14    36    1
    28    15    24   ar
    29    15    16   ar
    30    16    21   ar
    31    16    17   ar
    32    17    18   ar
    33    17    37    1
    34    18    19   ar
    35    18    38    1
    36    19    20   ar
    37    19    39    1
    38    20    21   ar
    39    20    40    1
    40    21    22   ar
    41    22    23   ar
    42    22    41    1
    43    23    24   ar
    44    23    42    1
    45    24    43    1
    46    25    44    1
@<TRIPOS>SUBSTRUCTURE
     1 ZINC000171059239        1 TEMP              0 ****  ****    0 ROOT


##########                                Name:    ZINC000428748914
##########                DOCK_Rotatable_Bonds:                  11
##########                         Heavy_Atoms:                  30
##########                    Molecular_Weight:             413.492
##########                DOCK_Rotatable_Bonds:                  11
##########                       Formal_Charge:           0.0199993
##########                     HBond_Acceptors:                   7
##########                        HBond_Donors:                   3
##########                         Heavy_Atoms:                  30
##########                          Grid_Score:          -30.990765
##########                     Grid_vdw_energy:          -30.127157
##########                      Grid_es_energy:           -0.863607
##########           Internal_energy_repulsive:           19.782162

@<TRIPOS>MOLECULE
ZINC000428748914
 58 61 1 0 0
SMALL
USER_CHARGES


@<TRIPOS>ATOM
      1 O1         -3.7221    4.1597   51.2787 O.2     1  ZINC000428748914   -0.5900
      2 C2         -3.4125    3.1435   50.6871 C.2     1  ZINC000428748914    0.7000
      3 N3         -2.1142    2.8017   50.5685 N.am    1  ZINC000428748914   -0.7400
      4 C4         -1.0757    3.6576   51.1474 C.3     1  ZINC000428748914    0.1900
      5 C5          0.1736    3.5683   50.3093 C.ar    1  ZINC000428748914   -0.2000
      6 C6          1.0424    4.6476   50.2282 C.ar    1  ZINC000428748914   -0.0200
      7 C7          2.1784    4.5234   49.4472 C.ar    1  ZINC000428748914   -0.1900
      8 C8          2.4093    3.3302   48.7751 C.ar    1  ZINC000428748914    0.3300
      9 O9          3.5194    3.1956   48.0068 O.3     1  ZINC000428748914   -0.3000
     10 C10         3.6995    1.9443   47.3407 C.3     1  ZINC000428748914    0.0800
     11 C11         2.5845    1.7248   46.2882 C.3     1  ZINC000428748914   -0.1400
     12 C12         3.2366    0.7231   45.3032 C.3     1  ZINC000428748914   -0.1200
     13 C13         4.7082    1.1785   45.2194 C.3     1  ZINC000428748914   -0.1200
     14 C14         5.0025    1.9550   46.5148 C.3     1  ZINC000428748914   -0.1200
     15 N15         1.5573    2.3234   48.8773 N.ar    1  ZINC000428748914   -0.5400
     16 C16         0.4692    2.4098   49.6184 C.ar    1  ZINC000428748914    0.1600
     17 N17        -4.3680    2.3561   50.1547 N.am    1  ZINC000428748914   -0.7400
     18 C18        -5.7793    2.7276   50.2835 C.3     1  ZINC000428748914    0.1800
     19 C19        -6.4317    1.8804   51.3778 C.3     1  ZINC000428748914   -0.1300
     20 C20        -6.6911    2.5999   52.7029 C.3     1  ZINC000428748914    0.1100
     21 O21        -5.4454    2.8782   53.3457 O.3     1  ZINC000428748914   -0.5700
     22 C22        -6.0593    0.3977   51.4397 C.3     1  ZINC000428748914   -0.1400
     23 C23        -7.4430    0.8188   50.9407 C.3     1  ZINC000428748914   -0.1000
     24 H24        -7.6435    0.7239   49.8735 H       1  ZINC000428748914    0.1200
     25 C25        -8.6181    0.5610   51.8484 C.ar    1  ZINC000428748914   -0.0700
     26 C26        -9.6153    1.5103   51.9739 C.ar    1  ZINC000428748914   -0.0900
     27 C27       -10.6933    1.2749   52.8059 C.ar    1  ZINC000428748914   -0.1500
     28 C28       -10.7747    0.0876   53.5135 C.ar    1  ZINC000428748914    0.1000
     29 F29       -11.8284   -0.1438   54.3269 F       1  ZINC000428748914   -0.1400
     30 C30        -9.7757   -0.8627   53.3866 C.ar    1  ZINC000428748914   -0.1500
     31 C31        -8.7009   -0.6270   52.5504 C.ar    1  ZINC000428748914   -0.0800
     32 H32        -1.8674    1.9890   50.1000 H       1  ZINC000428748914    0.4000
     33 H33        -1.4257    4.6897   51.1690 H       1  ZINC000428748914    0.0800
     34 H34        -0.8565    3.3271   52.1626 H       1  ZINC000428748914    0.0800
     35 H35         0.8366    5.5637   50.7619 H       1  ZINC000428748914    0.1400
     36 H36         2.8758    5.3435   49.3612 H       1  ZINC000428748914    0.1400
     37 H37         3.7120    1.1273   48.0623 H       1  ZINC000428748914    0.1000
     38 H38         1.6976    1.2908   46.7498 H       1  ZINC000428748914    0.0700
     39 H39         2.3404    2.6595   45.7834 H       1  ZINC000428748914    0.0800
     40 H40         3.1732   -0.2924   45.6941 H       1  ZINC000428748914    0.0700
     41 H41         2.7613    0.7864   44.3243 H       1  ZINC000428748914    0.0700
     42 H42         5.3640    0.3110   45.1468 H       1  ZINC000428748914    0.0700
     43 H43         4.8495    1.8272   44.3549 H       1  ZINC000428748914    0.0700
     44 H44         5.2867    2.9805   46.2791 H       1  ZINC000428748914    0.0800
     45 H45         5.8012    1.4641   47.0710 H       1  ZINC000428748914    0.0700
     46 H46        -0.2034    1.5670   49.6784 H       1  ZINC000428748914    0.1600
     47 H47        -4.1213    1.5433   49.6861 H       1  ZINC000428748914    0.3900
     48 H48        -5.8547    3.7824   50.5471 H       1  ZINC000428748914    0.0700
     49 H49        -6.2890    2.5525   49.3360 H       1  ZINC000428748914    0.0900
     50 H50        -7.2180    3.5347   52.5117 H       1  ZINC000428748914    0.0500
     51 H51        -7.2990    1.9656   53.3479 H       1  ZINC000428748914    0.0600
     52 H52        -5.0327    2.1054   53.7549 H       1  ZINC000428748914    0.3800
     53 H53        -5.3495    0.0258   50.7007 H       1  ZINC000428748914    0.1100
     54 H54        -5.9988   -0.0655   52.4245 H       1  ZINC000428748914    0.1100
     55 H55        -9.5515    2.4364   51.4218 H       1  ZINC000428748914    0.1400
     56 H56       -11.4717    2.0169   52.9044 H       1  ZINC000428748914    0.1400
     57 H57        -9.8380   -1.7890   53.9384 H       1  ZINC000428748914    0.1400
     58 H58        -7.9218   -1.3683   52.4510 H       1  ZINC000428748914    0.1300
@<TRIPOS>BOND
     1     1     2    2
     2     2     3   am
     3     2    17   am
     4     3     4    1
     5     3    32    1
     6     4     5    1
     7     4    33    1
     8     4    34    1
     9     5    16   ar
    10     5     6   ar
    11     6     7   ar
    12     6    35    1
    13     7     8   ar
    14     7    36    1
    15     8     9    1
    16     8    15   ar
    17     9    10    1
    18    10    14    1
    19    10    11    1
    20    10    37    1
    21    11    12    1
    22    11    38    1
    23    11    39    1
    24    12    13    1
    25    12    40    1
    26    12    41    1
    27    13    14    1
    28    13    42    1
    29    13    43    1
    30    14    44    1
    31    14    45    1
    32    15    16   ar
    33    16    46    1
    34    17    18    1
    35    17    47    1
    36    18    19    1
    37    18    48    1
    38    18    49    1
    39    19    23    1
    40    19    20    1
    41    19    22    1
    42    20    21    1
    43    20    50    1
    44    20    51    1
    45    21    52    1
    46    22    23    1
    47    22    53    1
    48    22    54    1
    49    23    24    1
    50    23    25    1
    51    25    31   ar
    52    25    26   ar
    53    26    27   ar
    54    26    55    1
    55    27    28   ar
    56    27    56    1
    57    28    29    1
    58    28    30   ar
    59    30    31   ar
    60    30    57    1
    61    31    58    1
@<TRIPOS>SUBSTRUCTURE
     1 ZINC000428748914        1 TEMP              0 ****  ****    0 ROOT


##########                                Name:    ZINC001065334255
##########                DOCK_Rotatable_Bonds:                   7
##########                         Heavy_Atoms:                  23
##########                    Molecular_Weight:             346.448
##########                DOCK_Rotatable_Bonds:                   7
##########                       Formal_Charge:        -5.81145e-07
##########                     HBond_Acceptors:                   8
##########                        HBond_Donors:                   1
##########                         Heavy_Atoms:                  23
##########                          Grid_Score:          -30.990494
##########                     Grid_vdw_energy:          -28.828522
##########                      Grid_es_energy:           -2.161972
##########           Internal_energy_repulsive:           17.429607

@<TRIPOS>MOLECULE
ZINC001065334255
 49 50 1 0 0
SMALL
USER_CHARGES


@<TRIPOS>ATOM
      1 C1         -7.7922    2.3182   68.0512 C.3     1  ZINC001065334255   -0.1500
      2 C2         -6.5384    1.9122   67.2739 C.3     1  ZINC001065334255   -0.0800
      3 C3         -5.3061    2.0953   68.1621 C.3     1  ZINC001065334255   -0.1500
      4 C4         -6.6512    0.4451   66.8543 C.3     1  ZINC001065334255   -0.1400
      5 C5         -7.8649    0.2647   65.9795 C.2     1  ZINC001065334255    0.5100
      6 O6         -8.9317   -0.0298   66.4758 O.2     1  ZINC001065334255   -0.5300
      7 N7         -7.7650    0.4305   64.6457 N.am    1  ZINC001065334255   -0.7300
      8 C8         -8.9454    0.2567   63.7955 C.3     1  ZINC001065334255    0.1300
      9 C9         -8.6684    0.8474   62.4116 C.3     1  ZINC001065334255    0.0700
     10 H10        -7.8310    0.3220   61.9524 H       1  ZINC001065334255    0.0700
     11 C11        -9.9137    0.6944   61.5310 C.3     1  ZINC001065334255    0.0800
     12 N12        -9.6893    1.4318   60.2775 N.am    1  ZINC001065334255   -0.6100
     13 C13        -9.8994    0.8472   59.0815 C.2     1  ZINC001065334255    0.5400
     14 O14        -9.7093    1.4719   58.0594 O.2     1  ZINC001065334255   -0.5200
     15 C15       -10.3707   -0.5826   59.0141 C.3     1  ZINC001065334255   -0.1100
     16 H16       -11.1035   -0.7712   59.7986 H       1  ZINC001065334255    0.1200
     17 C17        -9.1754   -1.5393   59.1684 C.3     1  ZINC001065334255   -0.1000
     18 C18        -9.6212   -2.9574   58.7597 C.3     1  ZINC001065334255   -0.5900
     19 S19       -10.9674   -2.7026   57.5478 S.o2    1  ZINC001065334255    2.3900
     20 O20       -10.5268   -3.1142   56.2611 O.2     1  ZINC001065334255   -0.9300
     21 O21       -12.1817   -3.2161   58.0779 O.2     1  ZINC001065334255   -0.9300
     22 C22       -10.9945   -0.8711   57.6242 C.3     1  ZINC001065334255   -0.5900
     23 C23        -9.2292    2.8266   60.3685 C.3     1  ZINC001065334255    0.0600
     24 C24        -8.0172    2.8758   61.3057 C.3     1  ZINC001065334255    0.0500
     25 O25        -8.3490    2.2349   62.5399 O.3     1  ZINC001065334255   -0.3700
     26 H26        -7.7119    3.3633   68.3501 H       1  ZINC001065334255    0.0600
     27 H27        -8.6701    2.1878   67.4184 H       1  ZINC001065334255    0.0500
     28 H28        -7.8878    1.6928   68.9388 H       1  ZINC001065334255    0.0600
     29 H29        -6.4428    2.5376   66.3864 H       1  ZINC001065334255    0.0800
     30 H30        -5.4018    1.4699   69.0497 H       1  ZINC001065334255    0.0500
     31 H31        -4.4130    1.8061   67.6083 H       1  ZINC001065334255    0.0700
     32 H32        -5.2259    3.1405   68.4610 H       1  ZINC001065334255    0.0500
     33 H33        -5.7580    0.1559   66.3006 H       1  ZINC001065334255    0.0900
     34 H34        -6.7468   -0.1802   67.7419 H       1  ZINC001065334255    0.0900
     35 H35        -6.9115    0.6648   64.2488 H       1  ZINC001065334255    0.4000
     36 H36        -9.1704   -0.8053   63.6988 H       1  ZINC001065334255    0.0900
     37 H37        -9.7958    0.7688   64.2456 H       1  ZINC001065334255    0.0800
     38 H38       -10.0810   -0.3602   61.3116 H       1  ZINC001065334255    0.1100
     39 H39       -10.7814    1.1044   62.0478 H       1  ZINC001065334255    0.0900
     40 H40        -8.3587   -1.2122   58.5247 H       1  ZINC001065334255    0.1000
     41 H41        -8.8418   -1.5447   60.2060 H       1  ZINC001065334255    0.1000
     42 H42        -8.7935   -3.4961   58.2984 H       1  ZINC001065334255    0.1500
     43 H43        -9.9916   -3.5025   59.6279 H       1  ZINC001065334255    0.1400
     44 H44       -12.0171   -0.4969   57.5728 H       1  ZINC001065334255    0.1400
     45 H45       -10.3839   -0.4416   56.8302 H       1  ZINC001065334255    0.1500
     46 H46        -8.9432    3.1840   59.3793 H       1  ZINC001065334255    0.1000
     47 H47       -10.0281    3.4513   60.7682 H       1  ZINC001065334255    0.0900
     48 H48        -7.1773    2.3584   60.8421 H       1  ZINC001065334255    0.0600
     49 H49        -7.7460    3.9142   61.4961 H       1  ZINC001065334255    0.1100
@<TRIPOS>BOND
     1     1     2    1
     2     1    26    1
     3     1    27    1
     4     1    28    1
     5     2     3    1
     6     2     4    1
     7     2    29    1
     8     3    30    1
     9     3    31    1
    10     3    32    1
    11     4     5    1
    12     4    33    1
    13     4    34    1
    14     5     6    2
    15     5     7   am
    16     7     8    1
    17     7    35    1
    18     8     9    1
    19     8    36    1
    20     8    37    1
    21     9    10    1
    22     9    25    1
    23     9    11    1
    24    11    12    1
    25    11    38    1
    26    11    39    1
    27    12    13   am
    28    12    23    1
    29    13    14    2
    30    13    15    1
    31    15    16    1
    32    15    22    1
    33    15    17    1
    34    17    18    1
    35    17    40    1
    36    17    41    1
    37    18    19    1
    38    18    42    1
    39    18    43    1
    40    19    20    2
    41    19    21    2
    42    19    22    1
    43    22    44    1
    44    22    45    1
    45    23    24    1
    46    23    46    1
    47    23    47    1
    48    24    25    1
    49    24    48    1
    50    24    49    1
@<TRIPOS>SUBSTRUCTURE
     1 ZINC001065334255        1 TEMP              0 ****  ****    0 ROOT


##########                                Name:    ZINC001162683355
##########                DOCK_Rotatable_Bonds:                   5
##########                         Heavy_Atoms:                  25
##########                    Molecular_Weight:             336.437
##########                DOCK_Rotatable_Bonds:                   5
##########                       Formal_Charge:          -0.0100002
##########                     HBond_Acceptors:                   5
##########                        HBond_Donors:                   1
##########                         Heavy_Atoms:                  25
##########                          Grid_Score:          -30.989943
##########                     Grid_vdw_energy:          -28.589346
##########                      Grid_es_energy:           -2.400596
##########           Internal_energy_repulsive:           16.199413

@<TRIPOS>MOLECULE
ZINC001162683355
 49 52 1 0 0
SMALL
USER_CHARGES


@<TRIPOS>ATOM
      1 C1        -14.0074   -2.3399   59.5758 C.3     1  ZINC001162683355    0.0200
      2 N2        -12.7632   -1.5824   59.3863 N.3     1  ZINC001162683355   -0.5400
      3 C3        -12.7062   -0.9905   58.0419 C.3     1  ZINC001162683355    0.0100
      4 C4        -11.4250   -0.1629   57.9083 C.3     1  ZINC001162683355    0.0600
      5 O5        -10.2949   -0.9957   58.1817 O.3     1  ZINC001162683355   -0.3800
      6 C6        -10.3176   -1.5881   59.4832 C.3     1  ZINC001162683355    0.0800
      7 H7        -10.3089   -0.8039   60.2402 H       1  ZINC001162683355    0.0700
      8 C8         -9.0884   -2.4818   59.6593 C.3     1  ZINC001162683355    0.1500
      9 N9         -7.8999   -1.6462   59.8468 N.pl3   1  ZINC001162683355   -0.7300
     10 C10        -7.8861   -0.3399   59.3705 C.ar    1  ZINC001162683355    0.4300
     11 C11        -8.1562    0.7213   60.2378 C.ar    1  ZINC001162683355   -0.0100
     12 C12        -8.1336    2.0303   59.7228 C.ar    1  ZINC001162683355   -0.0400
     13 C13        -7.8417    2.2144   58.3647 C.ar    1  ZINC001162683355   -0.1800
     14 C14        -7.5902    1.1191   57.5908 C.ar    1  ZINC001162683355    0.1000
     15 N15        -7.6169   -0.1044   58.0970 N.ar    1  ZINC001162683355   -0.5400
     16 C16        -8.4473    2.9125   60.8429 C.2     1  ZINC001162683355   -0.2200
     17 C17        -8.6385    2.1281   61.9186 C.2     1  ZINC001162683355    0.0800
     18 N18        -8.4631    0.8177   61.5759 N.pl3   1  ZINC001162683355   -0.4600
     19 C19        -8.5891   -0.3166   62.4944 C.3     1  ZINC001162683355    0.1500
     20 C20        -8.3689    0.1553   63.9086 C.ar    1  ZINC001162683355   -0.1100
     21 C21        -9.4073    0.7350   64.6132 C.ar    1  ZINC001162683355   -0.1000
     22 C22        -9.2065    1.1639   65.9120 C.ar    1  ZINC001162683355   -0.1200
     23 C23        -7.9649    1.0215   66.5027 C.ar    1  ZINC001162683355   -0.1100
     24 C24        -6.9251    0.4465   65.7962 C.ar    1  ZINC001162683355   -0.1200
     25 C25        -7.1271    0.0137   64.4990 C.ar    1  ZINC001162683355   -0.1000
     26 C26       -11.5876   -2.4301   59.6327 C.3     1  ZINC001162683355    0.0300
     27 H27       -14.0280   -3.1832   58.8854 H       1  ZINC001162683355    0.0300
     28 H28       -14.0563   -2.7081   60.6005 H       1  ZINC001162683355    0.0700
     29 H29       -14.8612   -1.6907   59.3818 H       1  ZINC001162683355    0.0700
     30 H30       -13.5727   -0.3469   57.8905 H       1  ZINC001162683355    0.0900
     31 H31       -12.7064   -1.7840   57.2946 H       1  ZINC001162683355    0.0500
     32 H32       -11.4493    0.6627   58.6196 H       1  ZINC001162683355    0.0600
     33 H33       -11.3498    0.2316   56.8950 H       1  ZINC001162683355    0.1000
     34 H34        -8.9601   -3.1021   58.7722 H       1  ZINC001162683355    0.0700
     35 H35        -9.2253   -3.1202   60.5322 H       1  ZINC001162683355    0.0800
     36 H36        -7.1224   -2.0043   60.3033 H       1  ZINC001162683355    0.4000
     37 H37        -7.8159    3.2062   57.9378 H       1  ZINC001162683355    0.1300
     38 H38        -7.3640    1.2528   56.5432 H       1  ZINC001162683355    0.1500
     39 H39        -8.5172    3.9898   60.8125 H       1  ZINC001162683355    0.1500
     40 H40        -8.8909    2.4821   62.9073 H       1  ZINC001162683355    0.1700
     41 H41        -7.8444   -1.0719   62.2433 H       1  ZINC001162683355    0.0900
     42 H42        -9.5868   -0.7466   62.4060 H       1  ZINC001162683355    0.0900
     43 H43       -10.3763    0.8498   64.1504 H       1  ZINC001162683355    0.1200
     44 H44       -10.0189    1.6128   66.4642 H       1  ZINC001162683355    0.1300
     45 H45        -7.8074    1.3590   67.5165 H       1  ZINC001162683355    0.1300
     46 H46        -5.9551    0.3353   66.2579 H       1  ZINC001162683355    0.1300
     47 H47        -6.3147   -0.4355   63.9470 H       1  ZINC001162683355    0.1200
     48 H48       -11.5699   -3.2466   58.9108 H       1  ZINC001162683355    0.0500
     49 H49       -11.6376   -2.8372   60.6425 H       1  ZINC001162683355    0.0900
@<TRIPOS>BOND
     1     1     2    1
     2     1    27    1
     3     1    28    1
     4     1    29    1
     5     2    26    1
     6     2     3    1
     7     3     4    1
     8     3    30    1
     9     3    31    1
    10     4     5    1
    11     4    32    1
    12     4    33    1
    13     5     6    1
    14     6     7    1
    15     6     8    1
    16     6    26    1
    17     8     9    1
    18     8    34    1
    19     8    35    1
    20     9    10    1
    21     9    36    1
    22    10    15   ar
    23    10    11   ar
    24    11    18    1
    25    11    12   ar
    26    12    13   ar
    27    12    16    1
    28    13    14   ar
    29    13    37    1
    30    14    15   ar
    31    14    38    1
    32    16    17    2
    33    16    39    1
    34    17    18    1
    35    17    40    1
    36    18    19    1
    37    19    20    1
    38    19    41    1
    39    19    42    1
    40    20    25   ar
    41    20    21   ar
    42    21    22   ar
    43    21    43    1
    44    22    23   ar
    45    22    44    1
    46    23    24   ar
    47    23    45    1
    48    24    25   ar
    49    24    46    1
    50    25    47    1
    51    26    48    1
    52    26    49    1
@<TRIPOS>SUBSTRUCTURE
     1 ZINC001162683355        1 TEMP              0 ****  ****    0 ROOT


##########                                Name:    ZINC001347442583
##########                DOCK_Rotatable_Bonds:                   9
##########                         Heavy_Atoms:                  27
##########                    Molecular_Weight:             370.492
##########                DOCK_Rotatable_Bonds:                   9
##########                       Formal_Charge:          -0.0400009
##########                     HBond_Acceptors:                   5
##########                        HBond_Donors:                   1
##########                         Heavy_Atoms:                  27
##########                          Grid_Score:          -30.969709
##########                     Grid_vdw_energy:          -31.525032
##########                      Grid_es_energy:            0.555323
##########           Internal_energy_repulsive:           11.569901

@<TRIPOS>MOLECULE
ZINC001347442583
 57 60 1 0 0
SMALL
USER_CHARGES


@<TRIPOS>ATOM
      1 O1         -8.2399    1.5309   54.2839 O.2     1  ZINC001347442583   -0.5400
      2 C2         -8.8724    0.6748   53.7025 C.2     1  ZINC001347442583    0.5400
      3 C3         -8.2271   -0.1171   52.5946 C.3     1  ZINC001347442583   -0.1400
      4 C4         -7.1583    0.7388   51.9117 C.3     1  ZINC001347442583   -0.1000
      5 C5         -7.8271    1.9125   51.1935 C.3     1  ZINC001347442583   -0.1100
      6 C6         -7.0312    2.2597   49.9336 C.3     1  ZINC001347442583   -0.0800
      7 C7         -5.6740    2.7844   50.3254 C.ar    1  ZINC001347442583   -0.0800
      8 C8         -4.5325    2.1120   49.9306 C.ar    1  ZINC001347442583   -0.1200
      9 C9         -3.2876    2.5935   50.2902 C.ar    1  ZINC001347442583   -0.1200
     10 C10        -3.1841    3.7475   51.0440 C.ar    1  ZINC001347442583   -0.1300
     11 C11        -4.3255    4.4205   51.4380 C.ar    1  ZINC001347442583   -0.1200
     12 C12        -5.5704    3.9414   51.0748 C.ar    1  ZINC001347442583   -0.1200
     13 N13       -10.1507    0.4276   54.0511 N.am    1  ZINC001347442583   -0.6300
     14 C14       -11.1429   -0.5621   53.5097 C.3     1  ZINC001347442583    0.1200
     15 H15       -10.7890   -1.1919   52.6936 H       1  ZINC001347442583    0.1200
     16 C16       -12.3410    0.3735   53.1663 C.3     1  ZINC001347442583   -0.1300
     17 C17       -12.2587    1.4766   54.2501 C.3     1  ZINC001347442583   -0.1300
     18 C18       -11.0199    1.0527   55.1050 C.3     1  ZINC001347442583    0.1200
     19 H19       -10.5586    1.8477   55.6910 H       1  ZINC001347442583    0.1200
     20 C20       -11.4936   -0.1914   55.9152 C.3     1  ZINC001347442583    0.1300
     21 H21       -12.4690   -0.0079   56.3657 H       1  ZINC001347442583    0.1100
     22 N22       -10.5104   -0.5431   56.9429 N.am    1  ZINC001347442583   -0.7200
     23 C23       -10.8400   -1.4072   57.9232 C.2     1  ZINC001347442583    0.5300
     24 O24       -11.9500   -1.8949   57.9539 O.2     1  ZINC001347442583   -0.5300
     25 C25        -9.8291   -1.7674   58.9814 C.3     1  ZINC001347442583   -0.1500
     26 H26        -9.3672   -2.7300   58.7623 H       1  ZINC001347442583    0.1100
     27 C27        -8.7528   -0.6563   59.1185 C.3     1  ZINC001347442583   -0.1400
     28 C28        -8.3332   -0.8344   60.5994 C.3     1  ZINC001347442583    0.0500
     29 O29        -9.5428   -1.1794   61.2929 O.3     1  ZINC001347442583   -0.3800
     30 C30       -10.4788   -1.7757   60.3818 C.3     1  ZINC001347442583    0.0700
     31 C31       -11.5539   -1.3151   54.8107 C.3     1  ZINC001347442583   -0.1400
     32 H32        -7.7647   -1.0127   53.0097 H       1  ZINC001347442583    0.0900
     33 H33        -8.9838   -0.4040   51.8645 H       1  ZINC001347442583    0.0900
     34 H34        -6.4640    1.1191   52.6610 H       1  ZINC001347442583    0.0700
     35 H35        -6.6147    0.1318   51.1877 H       1  ZINC001347442583    0.0700
     36 H36        -8.8444    1.6368   50.9161 H       1  ZINC001347442583    0.0600
     37 H37        -7.8527    2.7772   51.8566 H       1  ZINC001347442583    0.0600
     38 H38        -6.9124    1.3659   49.3212 H       1  ZINC001347442583    0.0700
     39 H39        -7.5649    3.0214   49.3652 H       1  ZINC001347442583    0.0700
     40 H40        -4.6134    1.2104   49.3418 H       1  ZINC001347442583    0.1200
     41 H41        -2.3958    2.0676   49.9824 H       1  ZINC001347442583    0.1200
     42 H42        -2.2114    4.1233   51.3255 H       1  ZINC001347442583    0.1200
     43 H43        -4.2447    5.3220   52.0272 H       1  ZINC001347442583    0.1200
     44 H44        -6.4622    4.4672   51.3826 H       1  ZINC001347442583    0.1200
     45 H45       -12.2202    0.8027   52.1716 H       1  ZINC001347442583    0.0700
     46 H46       -13.2842   -0.1677   53.2401 H       1  ZINC001347442583    0.0800
     47 H47       -12.0971    2.4528   53.7928 H       1  ZINC001347442583    0.0800
     48 H48       -13.1610    1.4823   54.8614 H       1  ZINC001347442583    0.0800
     49 H49        -9.6222   -0.1539   56.9176 H       1  ZINC001347442583    0.4000
     50 H50        -7.9129   -0.8380   58.4477 H       1  ZINC001347442583    0.0900
     51 H51        -9.1829    0.3306   58.9480 H       1  ZINC001347442583    0.0900
     52 H52        -7.6020   -1.6376   60.6915 H       1  ZINC001347442583    0.0700
     53 H53        -7.9247    0.0969   60.9915 H       1  ZINC001347442583    0.0900
     54 H54       -11.3993   -1.1923   60.3629 H       1  ZINC001347442583    0.0700
     55 H55       -10.6942   -2.7988   60.6898 H       1  ZINC001347442583    0.0800
     56 H56       -12.5698   -1.6960   54.7056 H       1  ZINC001347442583    0.0900
     57 H57       -10.8621   -2.1236   55.0473 H       1  ZINC001347442583    0.0800
@<TRIPOS>BOND
     1     1     2    2
     2     2     3    1
     3     2    13   am
     4     3     4    1
     5     3    32    1
     6     3    33    1
     7     4     5    1
     8     4    34    1
     9     4    35    1
    10     5     6    1
    11     5    36    1
    12     5    37    1
    13     6     7    1
    14     6    38    1
    15     6    39    1
    16     7    12   ar
    17     7     8   ar
    18     8     9   ar
    19     8    40    1
    20     9    10   ar
    21     9    41    1
    22    10    11   ar
    23    10    42    1
    24    11    12   ar
    25    11    43    1
    26    12    44    1
    27    13    18    1
    28    13    14    1
    29    14    15    1
    30    14    31    1
    31    14    16    1
    32    16    17    1
    33    16    45    1
    34    16    46    1
    35    17    18    1
    36    17    47    1
    37    17    48    1
    38    18    19    1
    39    18    20    1
    40    20    21    1
    41    20    22    1
    42    20    31    1
    43    22    23   am
    44    22    49    1
    45    23    24    2
    46    23    25    1
    47    25    26    1
    48    25    30    1
    49    25    27    1
    50    27    28    1
    51    27    50    1
    52    27    51    1
    53    28    29    1
    54    28    52    1
    55    28    53    1
    56    29    30    1
    57    30    54    1
    58    30    55    1
    59    31    56    1
    60    31    57    1
@<TRIPOS>SUBSTRUCTURE
     1 ZINC001347442583        1 TEMP              0 ****  ****    0 ROOT


##########                                Name:    ZINC001217683559
##########                DOCK_Rotatable_Bonds:                   3
##########                         Heavy_Atoms:                  25
##########                    Molecular_Weight:             397.234
##########                DOCK_Rotatable_Bonds:                   3
##########                       Formal_Charge:          0.00999987
##########                     HBond_Acceptors:                   7
##########                        HBond_Donors:                   0
##########                         Heavy_Atoms:                  25
##########                          Grid_Score:          -30.965511
##########                     Grid_vdw_energy:          -30.628197
##########                      Grid_es_energy:           -0.337316
##########           Internal_energy_repulsive:            5.374595

@<TRIPOS>MOLECULE
ZINC001217683559
 38 42 1 0 0
SMALL
USER_CHARGES


@<TRIPOS>ATOM
      1 Br1       -11.3838    1.7873   61.4405 Br      1  ZINC001217683559    0.0100
      2 C2         -9.8037    1.0373   62.1593 C.ar    1  ZINC001217683559   -0.1200
      3 C3         -9.3689    1.3948   63.4257 C.ar    1  ZINC001217683559   -0.0500
      4 C4         -8.2045    0.8195   63.9123 C.ar    1  ZINC001217683559   -0.1500
      5 C5         -7.5161   -0.0871   63.1264 C.ar    1  ZINC001217683559    0.1200
      6 N6         -7.9513   -0.4090   61.9258 N.ar    1  ZINC001217683559   -0.4400
      7 C7         -9.0629    0.1130   61.4256 C.ar    1  ZINC001217683559    0.2200
      8 C8         -9.5145   -0.2802   60.0668 C.2     1  ZINC001217683559    0.2100
      9 N9        -10.6304   -0.8943   59.7689 N.2     1  ZINC001217683559   -0.3300
     10 O10       -10.7068   -1.0733   58.5719 O.3     1  ZINC001217683559    0.1000
     11 C11        -9.6168   -0.5779   57.9652 C.2     1  ZINC001217683559    0.2300
     12 C12        -9.3305   -0.5977   56.5159 C.2     1  ZINC001217683559   -0.0600
     13 C13        -8.3675    0.2212   55.9976 C.2     1  ZINC001217683559    0.1800
     14 N14        -8.0984    0.2094   54.6685 N.pl3   1  ZINC001217683559   -0.2900
     15 N15        -7.1905    0.9191   53.8694 N.2     1  ZINC001217683559   -0.3300
     16 C16        -7.3591    0.5068   52.6353 C.2     1  ZINC001217683559    0.2800
     17 C17        -6.5871    1.0046   51.4407 C.3     1  ZINC001217683559   -0.0300
     18 C18        -7.4704    1.3060   50.2184 C.3     1  ZINC001217683559   -0.1200
     19 C19        -6.5881    2.5437   49.9844 C.3     1  ZINC001217683559   -0.1400
     20 C20        -6.2786    2.5104   51.4905 C.3     1  ZINC001217683559   -0.1200
     21 N21        -8.3113   -0.4149   52.5993 N.2     1  ZINC001217683559   -0.5300
     22 C22        -8.7829   -0.6193   53.8236 C.2     1  ZINC001217683559    0.2900
     23 C23        -9.7803   -1.4739   54.3321 C.2     1  ZINC001217683559   -0.1000
     24 C24       -10.0491   -1.4690   55.6637 C.2     1  ZINC001217683559   -0.0200
     25 N25        -8.8522   -0.0645   58.9112 N.2     1  ZINC001217683559   -0.4300
     26 H26        -9.9241    2.1055   64.0199 H       1  ZINC001217683559    0.1600
     27 H27        -7.8386    1.0771   64.8952 H       1  ZINC001217683559    0.1500
     28 H28        -6.6090   -0.5368   63.5024 H       1  ZINC001217683559    0.1800
     29 H29        -7.8173    0.8826   56.6505 H       1  ZINC001217683559    0.1900
     30 H30        -5.7178    0.3883   51.2116 H       1  ZINC001217683559    0.1200
     31 H31        -7.3926    0.5588   49.4286 H       1  ZINC001217683559    0.0700
     32 H32        -8.5021    1.5473   50.4741 H       1  ZINC001217683559    0.1000
     33 H33        -5.7193    2.3481   49.3558 H       1  ZINC001217683559    0.0800
     34 H34        -7.1472    3.4259   49.6729 H       1  ZINC001217683559    0.0800
     35 H35        -6.9846    3.0810   52.0940 H       1  ZINC001217683559    0.0900
     36 H36        -5.2389    2.7356   51.7277 H       1  ZINC001217683559    0.0700
     37 H37       -10.3245   -2.1305   53.6694 H       1  ZINC001217683559    0.1700
     38 H38       -10.8112   -2.1189   56.0675 H       1  ZINC001217683559    0.1700
@<TRIPOS>BOND
     1     1     2    1
     2     2     7   ar
     3     2     3   ar
     4     3     4   ar
     5     3    26    1
     6     4     5   ar
     7     4    27    1
     8     5     6   ar
     9     5    28    1
    10     6     7   ar
    11     7     8    1
    12     8    25    1
    13     8     9    2
    14     9    10    1
    15    10    11    1
    16    11    12    1
    17    11    25    2
    18    12    24    1
    19    12    13    2
    20    13    14    1
    21    13    29    1
    22    14    22    1
    23    14    15    1
    24    15    16    2
    25    16    17    1
    26    16    21    1
    27    17    20    1
    28    17    18    1
    29    17    30    1
    30    18    19    1
    31    18    31    1
    32    18    32    1
    33    19    20    1
    34    19    33    1
    35    19    34    1
    36    20    35    1
    37    20    36    1
    38    21    22    2
    39    22    23    1
    40    23    24    2
    41    23    37    1
    42    24    38    1
@<TRIPOS>SUBSTRUCTURE
     1 ZINC001217683559        1 TEMP              0 ****  ****    0 ROOT


##########                                Name:    ZINC000581017854
##########                DOCK_Rotatable_Bonds:                   6
##########                         Heavy_Atoms:                  24
##########                    Molecular_Weight:             330.334
##########                DOCK_Rotatable_Bonds:                   6
##########                       Formal_Charge:           0.0099998
##########                     HBond_Acceptors:                   6
##########                        HBond_Donors:                   2
##########                         Heavy_Atoms:                  24
##########                          Grid_Score:          -30.943865
##########                     Grid_vdw_energy:          -30.357656
##########                      Grid_es_energy:           -0.586208
##########           Internal_energy_repulsive:           14.942173

@<TRIPOS>MOLECULE
ZINC000581017854
 40 42 1 0 0
SMALL
USER_CHARGES


@<TRIPOS>ATOM
      1 C1         -7.4206    2.3694   49.9554 C.3     1  ZINC000581017854   -0.1600
      2 C2         -6.7156    1.7183   51.1471 C.3     1  ZINC000581017854    0.1500
      3 H3         -6.9828    2.2484   52.0612 H       1  ZINC000581017854    0.1100
      4 C4         -7.1503    0.2557   51.2601 C.3     1  ZINC000581017854    0.0500
      5 O5         -8.5204    0.1958   51.6619 O.3     1  ZINC000581017854   -0.3100
      6 C6         -8.7687    0.0981   52.9945 C.ar    1  ZINC000581017854    0.1600
      7 C7         -7.7797    0.4240   53.9110 C.ar    1  ZINC000581017854   -0.2200
      8 C8         -8.0333    0.3244   55.2657 C.ar    1  ZINC000581017854   -0.0500
      9 C9         -9.2715   -0.1003   55.7092 C.ar    1  ZINC000581017854   -0.1900
     10 C10       -10.2612   -0.4271   54.7970 C.ar    1  ZINC000581017854    0.1400
     11 F11       -11.4709   -0.8421   55.2325 F       1  ZINC000581017854   -0.1300
     12 C12       -10.0133   -0.3222   53.4399 C.ar    1  ZINC000581017854   -0.1900
     13 N13        -5.2651    1.7829   50.9513 N.am    1  ZINC000581017854   -0.7300
     14 C14        -4.6280    2.9685   51.0202 C.2     1  ZINC000581017854    0.5900
     15 O15        -5.2576    3.9854   51.2437 O.2     1  ZINC000581017854   -0.5400
     16 C16        -3.1733    3.0331   50.8256 C.2     1  ZINC000581017854   -0.2200
     17 C17        -2.3232    3.9717   51.3309 C.2     1  ZINC000581017854    0.1100
     18 N18        -1.0551    3.7011   50.9372 N.pl3   1  ZINC000581017854   -0.5700
     19 C19        -1.0261    2.5663   50.1530 C.ar    1  ZINC000581017854    0.1100
     20 C20        -0.0012    1.8785   49.5122 C.ar    1  ZINC000581017854   -0.1600
     21 C21        -0.2866    0.7444   48.7794 C.ar    1  ZINC000581017854    0.1200
     22 F22         0.7122    0.0791   48.1590 F       1  ZINC000581017854   -0.1400
     23 C23        -1.5919    0.2805   48.6749 C.ar    1  ZINC000581017854   -0.1700
     24 C24        -2.6192    0.9496   49.3032 C.ar    1  ZINC000581017854   -0.0300
     25 C25        -2.3437    2.0918   50.0504 C.ar    1  ZINC000581017854   -0.0700
     26 H26        -8.4997    2.3213   50.1010 H       1  ZINC000581017854    0.0700
     27 H27        -7.1108    3.4112   49.8749 H       1  ZINC000581017854    0.0700
     28 H28        -7.1534    1.8392   49.0412 H       1  ZINC000581017854    0.0700
     29 H29        -7.0336   -0.2337   50.2931 H       1  ZINC000581017854    0.0700
     30 H30        -6.5318   -0.2510   52.0009 H       1  ZINC000581017854    0.0800
     31 H31        -6.8115    0.7555   53.5658 H       1  ZINC000581017854    0.1400
     32 H32        -7.2629    0.5783   55.9787 H       1  ZINC000581017854    0.1400
     33 H33        -9.4674   -0.1778   56.7684 H       1  ZINC000581017854    0.1400
     34 H34       -10.7847   -0.5766   52.7281 H       1  ZINC000581017854    0.1400
     35 H35        -4.7634    0.9724   50.7719 H       1  ZINC000581017854    0.4000
     36 H36        -2.6164    4.8054   51.9517 H       1  ZINC000581017854    0.1800
     37 H37        -0.2774    4.2309   51.1730 H       1  ZINC000581017854    0.4200
     38 H38         1.0166    2.2316   49.5875 H       1  ZINC000581017854    0.1400
     39 H39        -1.8021   -0.6081   48.0981 H       1  ZINC000581017854    0.1400
     40 H40        -3.6333    0.5873   49.2202 H       1  ZINC000581017854    0.1500
@<TRIPOS>BOND
     1     1     2    1
     2     1    26    1
     3     1    27    1
     4     1    28    1
     5     2     3    1
     6     2     4    1
     7     2    13    1
     8     4     5    1
     9     4    29    1
    10     4    30    1
    11     5     6    1
    12     6    12   ar
    13     6     7   ar
    14     7     8   ar
    15     7    31    1
    16     8     9   ar
    17     8    32    1
    18     9    10   ar
    19     9    33    1
    20    10    11    1
    21    10    12   ar
    22    12    34    1
    23    13    14   am
    24    13    35    1
    25    14    15    2
    26    14    16    1
    27    16    25    1
    28    16    17    2
    29    17    18    1
    30    17    36    1
    31    18    19    1
    32    18    37    1
    33    19    25   ar
    34    19    20   ar
    35    20    21   ar
    36    20    38    1
    37    21    22    1
    38    21    23   ar
    39    23    24   ar
    40    23    39    1
    41    24    25   ar
    42    24    40    1
@<TRIPOS>SUBSTRUCTURE
     1 ZINC000581017854        1 TEMP              0 ****  ****    0 ROOT


##########                                Name:    ZINC000065993627
##########                DOCK_Rotatable_Bonds:                   7
##########                         Heavy_Atoms:                  28
##########                    Molecular_Weight:             382.462
##########                DOCK_Rotatable_Bonds:                   7
##########                       Formal_Charge:          -0.0200002
##########                     HBond_Acceptors:                   7
##########                        HBond_Donors:                   2
##########                         Heavy_Atoms:                  28
##########                          Grid_Score:          -30.934267
##########                     Grid_vdw_energy:          -30.083879
##########                      Grid_es_energy:           -0.850388
##########           Internal_energy_repulsive:           37.076904

@<TRIPOS>MOLECULE
ZINC000065993627
 54 56 1 0 0
SMALL
USER_CHARGES


@<TRIPOS>ATOM
      1 C1         -6.9633    2.9203   56.3959 C.3     1  ZINC000065993627   -0.1200
      2 C2         -7.6909    2.0023   55.4479 C.ar    1  ZINC000065993627   -0.0700
      3 C3         -7.2736    1.8927   54.1366 C.ar    1  ZINC000065993627   -0.1800
      4 C4         -7.9443    1.0464   53.2628 C.ar    1  ZINC000065993627    0.2000
      5 N5         -7.5213    0.9350   51.9338 N.pl3   1  ZINC000065993627   -0.6400
      6 C6         -8.1555    1.7475   50.8926 C.3     1  ZINC000065993627    0.1000
      7 C7         -6.4440    0.0060   51.5834 C.3     1  ZINC000065993627    0.0900
      8 C8         -9.0343    0.3109   53.7086 C.ar    1  ZINC000065993627   -0.1800
      9 C9         -9.4514    0.4208   55.0204 C.ar    1  ZINC000065993627   -0.0800
     10 C10        -8.7775    1.2623   55.8949 C.ar    1  ZINC000065993627    0.1100
     11 N11        -9.2009    1.3734   57.2269 N.am    1  ZINC000065993627   -0.6800
     12 C12        -8.8244    0.4494   58.1329 C.2     1  ZINC000065993627    0.7000
     13 O13        -8.1176   -0.4806   57.7953 O.2     1  ZINC000065993627   -0.5700
     14 N14        -9.2314    0.5562   59.4133 N.am    1  ZINC000065993627   -0.7400
     15 C15        -8.8207   -0.4472   60.3986 C.3     1  ZINC000065993627    0.2100
     16 H16        -7.7726   -0.7023   60.2422 H       1  ZINC000065993627    0.1000
     17 C17        -9.6806   -1.7024   60.2371 C.3     1  ZINC000065993627   -0.1600
     18 C18        -9.0005    0.1095   61.7874 C.ar    1  ZINC000065993627   -0.1200
     19 C19       -10.0077    1.0228   62.0396 C.ar    1  ZINC000065993627   -0.0800
     20 C20       -10.1751    1.5349   63.3113 C.ar    1  ZINC000065993627   -0.1500
     21 C21        -9.3306    1.1317   64.3372 C.ar    1  ZINC000065993627    0.1800
     22 N22        -9.4978    1.6483   65.6271 N.am    1  ZINC000065993627   -0.5700
     23 C23       -10.5267    2.6177   66.0336 C.3     1  ZINC000065993627    0.0600
     24 C24       -10.2548    2.8337   67.5348 C.3     1  ZINC000065993627    0.0400
     25 O25        -9.1130    1.9726   67.8139 O.3     1  ZINC000065993627   -0.3200
     26 C26        -8.7500    1.3364   66.6945 C.2     1  ZINC000065993627    0.6400
     27 O27        -7.8215    0.5540   66.6478 O.2     1  ZINC000065993627   -0.5000
     28 C28        -8.3201    0.2143   64.0808 C.ar    1  ZINC000065993627   -0.1500
     29 C29        -8.1615   -0.2983   62.8081 C.ar    1  ZINC000065993627   -0.0800
     30 H30        -6.1574    2.3731   56.8850 H       1  ZINC000065993627    0.0700
     31 H31        -6.5471    3.7606   55.8403 H       1  ZINC000065993627    0.0700
     32 H32        -7.6593    3.2913   57.1484 H       1  ZINC000065993627    0.0600
     33 H33        -6.4260    2.4652   53.7899 H       1  ZINC000065993627    0.1200
     34 H34        -7.6206    2.6919   50.7925 H       1  ZINC000065993627    0.0500
     35 H35        -8.1257    1.2107   49.9444 H       1  ZINC000065993627    0.0700
     36 H36        -9.1921    1.9442   51.1663 H       1  ZINC000065993627    0.0700
     37 H37        -6.1603   -0.5701   52.4641 H       1  ZINC000065993627    0.0800
     38 H38        -6.7882   -0.6711   50.8016 H       1  ZINC000065993627    0.0500
     39 H39        -5.5821    0.5681   51.2237 H       1  ZINC000065993627    0.0500
     40 H40        -9.5562   -0.3469   53.0293 H       1  ZINC000065993627    0.1300
     41 H41       -10.2993   -0.1513   55.3672 H       1  ZINC000065993627    0.1500
     42 H42        -9.7647    2.1153   57.4963 H       1  ZINC000065993627    0.4000
     43 H43        -9.7963    1.2973   59.6825 H       1  ZINC000065993627    0.4000
     44 H44        -9.5506   -2.1051   59.2325 H       1  ZINC000065993627    0.0700
     45 H45        -9.3751   -2.4489   60.9701 H       1  ZINC000065993627    0.0700
     46 H46       -10.7288   -1.4474   60.3934 H       1  ZINC000065993627    0.0600
     47 H47       -10.6640    1.3363   61.2411 H       1  ZINC000065993627    0.1300
     48 H48       -10.9616    2.2484   63.5076 H       1  ZINC000065993627    0.1600
     49 H49       -10.4104    3.5523   65.4851 H       1  ZINC000065993627    0.1000
     50 H50       -11.5237    2.2044   65.8807 H       1  ZINC000065993627    0.1000
     51 H51       -10.0043    3.8761   67.7317 H       1  ZINC000065993627    0.1100
     52 H52       -11.1174    2.5285   68.1273 H       1  ZINC000065993627    0.1100
     53 H53        -7.6615   -0.1009   64.8765 H       1  ZINC000065993627    0.1300
     54 H54        -7.3760   -1.0120   62.6081 H       1  ZINC000065993627    0.1300
@<TRIPOS>BOND
     1     1     2    1
     2     1    30    1
     3     1    31    1
     4     1    32    1
     5     2    10   ar
     6     2     3   ar
     7     3     4   ar
     8     3    33    1
     9     4     5    1
    10     4     8   ar
    11     5     6    1
    12     5     7    1
    13     6    34    1
    14     6    35    1
    15     6    36    1
    16     7    37    1
    17     7    38    1
    18     7    39    1
    19     8     9   ar
    20     8    40    1
    21     9    10   ar
    22     9    41    1
    23    10    11    1
    24    11    12   am
    25    11    42    1
    26    12    13    2
    27    12    14   am
    28    14    15    1
    29    14    43    1
    30    15    16    1
    31    15    17    1
    32    15    18    1
    33    17    44    1
    34    17    45    1
    35    17    46    1
    36    18    29   ar
    37    18    19   ar
    38    19    20   ar
    39    19    47    1
    40    20    21   ar
    41    20    48    1
    42    21    22    1
    43    21    28   ar
    44    22    26   am
    45    22    23    1
    46    23    24    1
    47    23    49    1
    48    23    50    1
    49    24    25    1
    50    24    51    1
    51    24    52    1
    52    25    26    1
    53    26    27    2
    54    28    29   ar
    55    28    53    1
    56    29    54    1
@<TRIPOS>SUBSTRUCTURE
     1 ZINC000065993627        1 TEMP              0 ****  ****    0 ROOT


##########                                Name:    ZINC000481838178
##########                DOCK_Rotatable_Bonds:                   6
##########                         Heavy_Atoms:                  29
##########                    Molecular_Weight:             408.524
##########                DOCK_Rotatable_Bonds:                   6
##########                       Formal_Charge:         -0.00999962
##########                     HBond_Acceptors:                   7
##########                        HBond_Donors:                   0
##########                         Heavy_Atoms:                  29
##########                          Grid_Score:          -30.913372
##########                     Grid_vdw_energy:          -29.156643
##########                      Grid_es_energy:           -1.756730
##########           Internal_energy_repulsive:            6.820812

@<TRIPOS>MOLECULE
ZINC000481838178
 53 57 1 0 0
SMALL
USER_CHARGES


@<TRIPOS>ATOM
      1 O1        -10.6291   -1.7739   53.4056 O.2     1  ZINC000481838178   -0.5200
      2 C2         -9.9453   -1.0123   54.0563 C.2     1  ZINC000481838178    0.5500
      3 C3        -10.1572   -0.8929   55.5436 C.3     1  ZINC000481838178   -0.1500
      4 S4        -11.4217    0.3591   55.8744 S.3     1  ZINC000481838178    0.1000
      5 C5        -10.4628    1.5324   56.7735 C.2     1  ZINC000481838178    0.1600
      6 N6        -10.2116    2.7716   56.4156 N.2     1  ZINC000481838178   -0.2800
      7 N7         -9.4815    3.3499   57.3008 N.2     1  ZINC000481838178   -0.2500
      8 C8         -9.2192    2.5154   58.2831 C.2     1  ZINC000481838178    0.2700
      9 C9         -8.4158    2.7995   59.4818 C.2     1  ZINC000481838178    0.0300
     10 C10        -7.3336    3.6258   59.5427 C.2     1  ZINC000481838178   -0.1300
     11 C11        -6.8786    3.6001   60.8751 C.2     1  ZINC000481838178   -0.2100
     12 C12        -7.6940    2.7703   61.5559 C.2     1  ZINC000481838178   -0.0100
     13 O13        -8.6248    2.2929   60.7130 O.3     1  ZINC000481838178   -0.1700
     14 N14        -9.8458    1.3247   57.9780 N.pl3   1  ZINC000481838178   -0.4100
     15 C15        -9.8437    0.1467   58.7375 C.ar    1  ZINC000481838178    0.1000
     16 C16        -8.6903   -0.6207   58.8277 C.ar    1  ZINC000481838178   -0.0800
     17 C17        -8.6914   -1.7812   59.5768 C.ar    1  ZINC000481838178   -0.1100
     18 C18        -9.8396   -2.1787   60.2367 C.ar    1  ZINC000481838178   -0.1000
     19 C19       -10.9900   -1.4164   60.1488 C.ar    1  ZINC000481838178   -0.1100
     20 C20       -10.9935   -0.2520   59.4059 C.ar    1  ZINC000481838178   -0.0900
     21 N21        -8.9923   -0.2769   53.4503 N.am    1  ZINC000481838178   -0.6200
     22 C22        -8.6764   -0.2864   51.9968 C.3     1  ZINC000481838178    0.1000
     23 C23        -8.0567    1.0968   51.7652 C.3     1  ZINC000481838178   -0.1100
     24 H24        -8.8213    1.8736   51.7721 H       1  ZINC000481838178    0.0900
     25 C25        -7.1563    1.2334   50.5519 C.3     1  ZINC000481838178   -0.1100
     26 C26        -6.5623    2.6514   50.5875 C.3     1  ZINC000481838178   -0.1200
     27 C27        -5.7989    2.9096   51.8824 C.3     1  ZINC000481838178   -0.1200
     28 C28        -6.6678    2.6235   53.1189 C.3     1  ZINC000481838178   -0.1000
     29 C29        -7.1446    1.1925   53.0251 C.3     1  ZINC000481838178   -0.1100
     30 H30        -6.2932    0.5233   52.9002 H       1  ZINC000481838178    0.0900
     31 C31        -8.0816    0.6865   54.1176 C.3     1  ZINC000481838178    0.1200
     32 H32       -10.4839   -1.8534   55.9424 H       1  ZINC000481838178    0.1300
     33 H33        -9.2223   -0.6002   56.0215 H       1  ZINC000481838178    0.1300
     34 H34        -6.9073    4.1906   58.7268 H       1  ZINC000481838178    0.1600
     35 H35        -6.0354    4.1427   61.2759 H       1  ZINC000481838178    0.1600
     36 H36        -7.6148    2.5321   62.6063 H       1  ZINC000481838178    0.2100
     37 H37        -7.7932   -0.3109   58.3122 H       1  ZINC000481838178    0.1300
     38 H38        -7.7945   -2.3787   59.6470 H       1  ZINC000481838178    0.1400
     39 H39        -9.8382   -3.0866   60.8216 H       1  ZINC000481838178    0.1300
     40 H40       -11.8855   -1.7297   60.6650 H       1  ZINC000481838178    0.1400
     41 H41       -11.8922    0.3430   59.3376 H       1  ZINC000481838178    0.1300
     42 H42        -7.9592   -1.0735   51.7639 H       1  ZINC000481838178    0.0800
     43 H43        -9.5849   -0.4049   51.4063 H       1  ZINC000481838178    0.0800
     44 H44        -6.3566    0.4942   50.5975 H       1  ZINC000481838178    0.0700
     45 H45        -7.7381    1.0970   49.6402 H       1  ZINC000481838178    0.0700
     46 H46        -5.8831    2.7737   49.7437 H       1  ZINC000481838178    0.0600
     47 H47        -7.3703    3.3777   50.5001 H       1  ZINC000481838178    0.0600
     48 H48        -4.9181    2.2681   51.9102 H       1  ZINC000481838178    0.0600
     49 H49        -5.4794    3.9516   51.9054 H       1  ZINC000481838178    0.0700
     50 H50        -6.0794    2.7601   54.0263 H       1  ZINC000481838178    0.0700
     51 H51        -7.5297    3.2907   53.1299 H       1  ZINC000481838178    0.0700
     52 H52        -8.6421    1.5167   54.5470 H       1  ZINC000481838178    0.0700
     53 H53        -7.5129    0.1740   54.8936 H       1  ZINC000481838178    0.0700
@<TRIPOS>BOND
     1     1     2    2
     2     2     3    1
     3     2    21   am
     4     3     4    1
     5     3    32    1
     6     3    33    1
     7     4     5    1
     8     5    14    1
     9     5     6    2
    10     6     7    1
    11     7     8    2
    12     8     9    1
    13     8    14    1
    14     9    13    1
    15     9    10    2
    16    10    11    1
    17    10    34    1
    18    11    12    2
    19    11    35    1
    20    12    13    1
    21    12    36    1
    22    14    15    1
    23    15    20   ar
    24    15    16   ar
    25    16    17   ar
    26    16    37    1
    27    17    18   ar
    28    17    38    1
    29    18    19   ar
    30    18    39    1
    31    19    20   ar
    32    19    40    1
    33    20    41    1
    34    21    31    1
    35    21    22    1
    36    22    23    1
    37    22    42    1
    38    22    43    1
    39    23    24    1
    40    23    29    1
    41    23    25    1
    42    25    26    1
    43    25    44    1
    44    25    45    1
    45    26    27    1
    46    26    46    1
    47    26    47    1
    48    27    28    1
    49    27    48    1
    50    27    49    1
    51    28    29    1
    52    28    50    1
    53    28    51    1
    54    29    30    1
    55    29    31    1
    56    31    52    1
    57    31    53    1
@<TRIPOS>SUBSTRUCTURE
     1 ZINC000481838178        1 TEMP              0 ****  ****    0 ROOT


##########                                Name:    ZINC001015955459
##########                DOCK_Rotatable_Bonds:                   6
##########                         Heavy_Atoms:                  24
##########                    Molecular_Weight:             347.844
##########                DOCK_Rotatable_Bonds:                   6
##########                       Formal_Charge:          -0.0200002
##########                     HBond_Acceptors:                   6
##########                        HBond_Donors:                   1
##########                         Heavy_Atoms:                  24
##########                          Grid_Score:          -30.877651
##########                     Grid_vdw_energy:          -30.584526
##########                      Grid_es_energy:           -0.293125
##########           Internal_energy_repulsive:           10.385528

@<TRIPOS>MOLECULE
ZINC001015955459
 46 48 1 0 0
SMALL
USER_CHARGES


@<TRIPOS>ATOM
      1 C1        -10.4076   -0.0235   59.3714 C.3     1  ZINC001015955459   -0.1500
      2 C2         -9.1536   -0.8864   59.2169 C.3     1  ZINC001015955459   -0.0300
      3 C3         -8.3810   -0.9043   60.5375 C.3     1  ZINC001015955459   -0.1500
      4 C4         -9.5533   -2.2923   58.8498 C.2     1  ZINC001015955459    0.0600
      5 C5        -10.1078   -2.6959   57.6743 C.2     1  ZINC001015955459   -0.0800
      6 C6        -10.4314   -1.8394   56.5189 C.2     1  ZINC001015955459    0.6100
      7 O7        -11.4798   -1.9938   55.9222 O.2     1  ZINC001015955459   -0.5300
      8 N8         -9.5655   -0.8852   56.1238 N.am    1  ZINC001015955459   -0.7100
      9 C9         -9.8878   -0.0329   54.9768 C.3     1  ZINC001015955459    0.1400
     10 H10       -10.9519    0.2033   54.9687 H       1  ZINC001015955459    0.1000
     11 C11        -9.0516    1.2627   55.0201 C.3     1  ZINC001015955459   -0.1300
     12 C12        -8.2117    1.2416   53.7251 C.3     1  ZINC001015955459    0.0200
     13 N13        -8.9776    0.3711   52.7963 N.3     1  ZINC001015955459   -0.4900
     14 C14        -8.1123   -0.1518   51.7306 C.3     1  ZINC001015955459    0.0800
     15 C15        -7.3459    0.9840   51.1032 C.ar    1  ZINC001015955459   -0.1100
     16 C16        -8.0107    2.1270   50.7007 C.ar    1  ZINC001015955459   -0.1100
     17 C17        -7.3075    3.1715   50.1294 C.ar    1  ZINC001015955459   -0.1000
     18 C18        -5.9410    3.0689   49.9509 C.ar    1  ZINC001015955459   -0.1100
     19 C19        -5.2757    1.9227   50.3488 C.ar    1  ZINC001015955459   -0.0300
     20 Cl20       -3.5591    1.7928   50.1243 Cl      1  ZINC001015955459   -0.0700
     21 C21        -5.9790    0.8803   50.9252 C.ar    1  ZINC001015955459   -0.1000
     22 C22        -9.4833   -0.7302   53.6601 C.3     1  ZINC001015955459    0.0100
     23 N23       -10.3126   -4.0377   57.7684 N.2     1  ZINC001015955459   -0.4600
     24 C24        -9.8978   -4.4370   58.9333 C.2     1  ZINC001015955459    0.1800
     25 O25        -9.4297   -3.3851   59.6199 O.3     1  ZINC001015955459   -0.1900
     26 H26       -11.0396   -0.4384   60.1566 H       1  ZINC001015955459    0.0600
     27 H27       -10.1185    0.9934   59.6369 H       1  ZINC001015955459    0.0700
     28 H28       -10.9579   -0.0108   58.4306 H       1  ZINC001015955459    0.0600
     29 H29        -8.5215   -0.4716   58.4318 H       1  ZINC001015955459    0.1300
     30 H30        -7.4876   -1.5190   60.4274 H       1  ZINC001015955459    0.0600
     31 H31        -8.0919    0.1126   60.8030 H       1  ZINC001015955459    0.0700
     32 H32        -9.0130   -1.3190   61.3227 H       1  ZINC001015955459    0.0600
     33 H33        -8.7287   -0.7628   56.5991 H       1  ZINC001015955459    0.4100
     34 H34        -9.7053    2.1348   55.0334 H       1  ZINC001015955459    0.0800
     35 H35        -8.4014    1.2644   55.8950 H       1  ZINC001015955459    0.0700
     36 H36        -8.1202    2.2474   53.3149 H       1  ZINC001015955459    0.0900
     37 H37        -7.2263    0.8177   53.9179 H       1  ZINC001015955459    0.0500
     38 H38        -7.4124   -0.8734   52.1521 H       1  ZINC001015955459    0.0900
     39 H39        -8.7245   -0.6397   50.9721 H       1  ZINC001015955459    0.0900
     40 H40        -9.0793    2.2059   50.8359 H       1  ZINC001015955459    0.1300
     41 H41        -7.8269    4.0660   49.8189 H       1  ZINC001015955459    0.1300
     42 H42        -5.3925    3.8830   49.5005 H       1  ZINC001015955459    0.1300
     43 H43        -5.4603   -0.0148   51.2356 H       1  ZINC001015955459    0.1300
     44 H44        -8.6967   -1.4621   53.8437 H       1  ZINC001015955459    0.0700
     45 H45       -10.3490   -1.2082   53.2016 H       1  ZINC001015955459    0.0900
     46 H46        -9.9296   -5.4546   59.2933 H       1  ZINC001015955459    0.2600
@<TRIPOS>BOND
     1     1     2    1
     2     1    26    1
     3     1    27    1
     4     1    28    1
     5     2     3    1
     6     2     4    1
     7     2    29    1
     8     3    30    1
     9     3    31    1
    10     3    32    1
    11     4    25    1
    12     4     5    2
    13     5     6    1
    14     5    23    1
    15     6     7    2
    16     6     8   am
    17     8     9    1
    18     8    33    1
    19     9    10    1
    20     9    22    1
    21     9    11    1
    22    11    12    1
    23    11    34    1
    24    11    35    1
    25    12    13    1
    26    12    36    1
    27    12    37    1
    28    13    14    1
    29    13    22    1
    30    14    15    1
    31    14    38    1
    32    14    39    1
    33    15    21   ar
    34    15    16   ar
    35    16    17   ar
    36    16    40    1
    37    17    18   ar
    38    17    41    1
    39    18    19   ar
    40    18    42    1
    41    19    20    1
    42    19    21   ar
    43    21    43    1
    44    22    44    1
    45    22    45    1
    46    23    24    2
    47    24    25    1
    48    24    46    1
@<TRIPOS>SUBSTRUCTURE
     1 ZINC001015955459        1 TEMP              0 ****  ****    0 ROOT


##########                                Name:    ZINC000443933644
##########                DOCK_Rotatable_Bonds:                   8
##########                         Heavy_Atoms:                  27
##########                    Molecular_Weight:             402.438
##########                DOCK_Rotatable_Bonds:                   8
##########                       Formal_Charge:          0.00999922
##########                     HBond_Acceptors:                   9
##########                        HBond_Donors:                   2
##########                         Heavy_Atoms:                  27
##########                          Grid_Score:          -30.874670
##########                     Grid_vdw_energy:          -30.223108
##########                      Grid_es_energy:           -0.651561
##########           Internal_energy_repulsive:           39.999672

@<TRIPOS>MOLECULE
ZINC000443933644
 48 49 1 0 0
SMALL
USER_CHARGES


@<TRIPOS>ATOM
      1 C1        -16.0461   -2.6411   57.9141 C.3     1  ZINC000443933644   -0.1500
      2 C2        -15.2932   -1.6448   58.7980 C.3     1  ZINC000443933644   -0.1400
      3 C3        -14.0619   -2.3254   59.3992 C.3     1  ZINC000443933644   -0.1000
      4 H4        -14.0353   -3.3695   59.0874 H       1  ZINC000443933644    0.1000
      5 C5        -14.1323   -2.2506   60.9257 C.3     1  ZINC000443933644   -0.1700
      6 C6        -12.7976   -1.6152   58.9115 C.3     1  ZINC000443933644    0.1200
      7 H7        -12.8579   -1.4652   57.8335 H       1  ZINC000443933644    0.1300
      8 N8        -11.6249   -2.4353   59.2255 N.am    1  ZINC000443933644   -1.1100
      9 S9        -10.8565   -3.2761   58.0234 S.o2    1  ZINC000443933644    2.6900
     10 O10        -9.6899   -3.8377   58.6092 O.2     1  ZINC000443933644   -0.9400
     11 O11       -11.8542   -4.0553   57.3779 O.2     1  ZINC000443933644   -0.9400
     12 C12       -10.2998   -2.0984   56.8369 C.ar    1  ZINC000443933644   -0.7000
     13 C13        -9.4286   -1.0668   57.2256 C.ar    1  ZINC000443933644    0.0500
     14 C14        -8.9847   -0.9505   58.5544 C.ar    1  ZINC000443933644   -0.1400
     15 C15        -8.1407    0.0609   58.8965 C.ar    1  ZINC000443933644   -0.0800
     16 C16        -7.7081    0.9858   57.9482 C.ar    1  ZINC000443933644   -0.1200
     17 C17        -8.1179    0.9041   56.6523 C.ar    1  ZINC000443933644   -0.0900
     18 C18        -8.9882   -0.1260   56.2623 C.ar    1  ZINC000443933644   -0.0900
     19 C19        -9.4339   -0.2423   54.9286 C.ar    1  ZINC000443933644    0.2300
     20 N20        -9.0130    0.6738   53.9629 N.am    1  ZINC000443933644   -0.6700
     21 C21        -8.3156    0.2499   52.8903 C.2     1  ZINC000443933644    0.5100
     22 C22        -7.8613    1.2389   51.8479 C.3     1  ZINC000443933644   -0.1700
     23 O23        -8.0537   -0.9276   52.7641 O.2     1  ZINC000443933644   -0.5100
     24 C24       -10.2882   -1.2687   54.5878 C.ar    1  ZINC000443933644   -0.1600
     25 C25       -10.7090   -2.1906   55.5415 C.ar    1  ZINC000443933644    0.0400
     26 C26       -12.6731   -0.2591   59.6089 C.3     1  ZINC000443933644    0.4300
     27 F27       -11.8608    0.5855   58.8448 F       1  ZINC000443933644   -0.1700
     28 F28       -13.9423    0.3131   59.7460 F       1  ZINC000443933644   -0.1600
     29 F29       -12.1022   -0.4360   60.8738 F       1  ZINC000443933644   -0.1700
     30 H30       -15.3915   -2.9822   57.1120 H       1  ZINC000443933644    0.0500
     31 H31       -16.3599   -3.4948   58.5148 H       1  ZINC000443933644    0.0600
     32 H32       -16.9234   -2.1563   57.4858 H       1  ZINC000443933644    0.0600
     33 H33       -14.9795   -0.7911   58.1972 H       1  ZINC000443933644    0.0700
     34 H34       -15.9478   -1.3037   59.6000 H       1  ZINC000443933644    0.0900
     35 H35       -14.9674   -2.8544   61.2810 H       1  ZINC000443933644    0.0700
     36 H36       -13.2030   -2.6295   61.3513 H       1  ZINC000443933644    0.0600
     37 H37       -14.2765   -1.2147   61.2324 H       1  ZINC000443933644    0.0700
     38 H38       -11.2985   -2.4858   60.1375 H       1  ZINC000443933644    0.4300
     39 H39        -9.3121   -1.6599   59.3001 H       1  ZINC000443933644    0.1400
     40 H40        -7.8014    0.1482   59.9181 H       1  ZINC000443933644    0.1300
     41 H41        -7.0383    1.7790   58.2455 H       1  ZINC000443933644    0.1300
     42 H42        -7.7752    1.6283   55.9281 H       1  ZINC000443933644    0.1300
     43 H43        -9.2224    1.6156   54.0640 H       1  ZINC000443933644    0.4200
     44 H44        -8.1869    2.2399   52.1306 H       1  ZINC000443933644    0.0800
     45 H45        -6.7739    1.2171   51.7760 H       1  ZINC000443933644    0.1000
     46 H46        -8.2946    0.9747   50.8833 H       1  ZINC000443933644    0.1000
     47 H47       -10.6316   -1.3610   53.5680 H       1  ZINC000443933644    0.1500
     48 H48       -11.3787   -2.9867   55.2514 H       1  ZINC000443933644    0.1500
@<TRIPOS>BOND
     1     1     2    1
     2     1    30    1
     3     1    31    1
     4     1    32    1
     5     2     3    1
     6     2    33    1
     7     2    34    1
     8     3     4    1
     9     3     5    1
    10     3     6    1
    11     5    35    1
    12     5    36    1
    13     5    37    1
    14     6     7    1
    15     6     8    1
    16     6    26    1
    17     8     9   am
    18     8    38    1
    19     9    10    2
    20     9    11    2
    21     9    12    1
    22    12    25   ar
    23    12    13   ar
    24    13    18   ar
    25    13    14   ar
    26    14    15   ar
    27    14    39    1
    28    15    16   ar
    29    15    40    1
    30    16    17   ar
    31    16    41    1
    32    17    18   ar
    33    17    42    1
    34    18    19   ar
    35    19    20    1
    36    19    24   ar
    37    20    21   am
    38    20    43    1
    39    21    22    1
    40    21    23    2
    41    22    44    1
    42    22    45    1
    43    22    46    1
    44    24    25   ar
    45    24    47    1
    46    25    48    1
    47    26    27    1
    48    26    28    1
    49    26    29    1
@<TRIPOS>SUBSTRUCTURE
     1 ZINC000443933644        1 TEMP              0 ****  ****    0 ROOT


##########                                Name:    ZINC001371344729
##########                DOCK_Rotatable_Bonds:                   9
##########                         Heavy_Atoms:                  24
##########                    Molecular_Weight:             332.399
##########                DOCK_Rotatable_Bonds:                   9
##########                       Formal_Charge:          0.00999983
##########                     HBond_Acceptors:                   6
##########                        HBond_Donors:                   1
##########                         Heavy_Atoms:                  24
##########                          Grid_Score:          -30.874519
##########                     Grid_vdw_energy:          -31.662363
##########                      Grid_es_energy:            0.787844
##########           Internal_energy_repulsive:           29.707308

@<TRIPOS>MOLECULE
ZINC001371344729
 48 49 1 0 0
SMALL
USER_CHARGES


@<TRIPOS>ATOM
      1 C1         -8.5454    3.0824   50.1170 C.3     1  ZINC001371344729   -0.1800
      2 C2         -7.5497    1.9663   49.7951 C.3     1  ZINC001371344729    0.1000
      3 N3         -6.6591    1.7612   50.9401 N.am    1  ZINC001371344729   -0.6100
      4 C4         -7.0395    0.9595   51.9546 C.2     1  ZINC001371344729    0.5100
      5 O5         -6.3017    0.7884   52.9018 O.2     1  ZINC001371344729   -0.5200
      6 C6         -8.3818    0.2756   51.9119 C.3     1  ZINC001371344729   -0.0600
      7 C7         -8.9147    0.1272   53.3136 C.2     1  ZINC001371344729   -0.0100
      8 C8        -10.2133    0.1139   53.6643 C.2     1  ZINC001371344729   -0.1600
      9 C9        -11.3950    0.2424   52.7378 C.3     1  ZINC001371344729   -0.0800
     10 C10       -10.2567   -0.0378   55.0692 C.2     1  ZINC001371344729   -0.2100
     11 C11        -8.9823   -0.1175   55.4921 C.2     1  ZINC001371344729   -0.0300
     12 O12        -8.1737   -0.0133   54.4249 O.3     1  ZINC001371344729   -0.1700
     13 C13        -5.3550    2.4273   50.9824 C.3     1  ZINC001371344729    0.1200
     14 H14        -4.8184    2.1188   51.8796 H       1  ZINC001371344729    0.1100
     15 C15        -5.5575    3.9437   51.0052 C.3     1  ZINC001371344729   -0.1600
     16 C16        -4.5438    2.0396   49.7444 C.3     1  ZINC001371344729    0.1100
     17 N17        -3.1312    2.3577   49.9668 N.am    1  ZINC001371344729   -0.7200
     18 C18        -2.1730    1.5345   49.4971 C.2     1  ZINC001371344729    0.5900
     19 O19        -2.4811    0.5283   48.8875 O.2     1  ZINC001371344729   -0.5300
     20 C20        -0.7520    1.8537   49.7224 C.2     1  ZINC001371344729   -0.2300
     21 C21         0.3283    1.2738   49.1243 C.2     1  ZINC001371344729    0.0200
     22 O22         1.4353    1.8499   49.6030 O.3     1  ZINC001371344729   -0.1700
     23 C23         1.1313    2.7919   50.5095 C.2     1  ZINC001371344729   -0.0100
     24 C24         2.1284    3.6390   51.2572 C.3     1  ZINC001371344729   -0.0800
     25 C25        -0.2021    2.8591   50.6435 C.2     1  ZINC001371344729   -0.1600
     26 H26        -8.0027    4.0046   50.3250 H       1  ZINC001371344729    0.0700
     27 H27        -9.2080    3.2351   49.2651 H       1  ZINC001371344729    0.0700
     28 H28        -9.1348    2.8029   50.9902 H       1  ZINC001371344729    0.0600
     29 H29        -6.9602    2.2460   48.9219 H       1  ZINC001371344729    0.0900
     30 H30        -8.0923    1.0442   49.5870 H       1  ZINC001371344729    0.0800
     31 H31        -8.2734   -0.7095   51.4582 H       1  ZINC001371344729    0.1100
     32 H32        -9.0755    0.8735   51.3208 H       1  ZINC001371344729    0.1200
     33 H33       -11.7005   -0.7476   52.3992 H       1  ZINC001371344729    0.0700
     34 H34       -12.2216    0.7164   53.2671 H       1  ZINC001371344729    0.0700
     35 H35       -11.1176    0.8512   51.8773 H       1  ZINC001371344729    0.0600
     36 H36       -11.1431   -0.0837   55.6846 H       1  ZINC001371344729    0.1500
     37 H37        -8.6632   -0.2391   56.5168 H       1  ZINC001371344729    0.2000
     38 H38        -6.1353    4.2199   51.8872 H       1  ZINC001371344729    0.0700
     39 H39        -4.5872    4.4394   51.0367 H       1  ZINC001371344729    0.0700
     40 H40        -6.0941    4.2521   50.1080 H       1  ZINC001371344729    0.0700
     41 H41        -4.6508    0.9706   49.5600 H       1  ZINC001371344729    0.0800
     42 H42        -4.9100    2.5955   48.8814 H       1  ZINC001371344729    0.0800
     43 H43        -2.8855    3.1609   50.4521 H       1  ZINC001371344729    0.4000
     44 H44         0.2947    0.4848   48.3875 H       1  ZINC001371344729    0.2100
     45 H45         2.4083    3.1379   52.1839 H       1  ZINC001371344729    0.0800
     46 H46         3.0154    3.7853   50.6410 H       1  ZINC001371344729    0.0800
     47 H47         1.6826    4.6065   51.4878 H       1  ZINC001371344729    0.0900
     48 H48        -0.7579    3.5174   51.2947 H       1  ZINC001371344729    0.1600
@<TRIPOS>BOND
     1     1     2    1
     2     1    26    1
     3     1    27    1
     4     1    28    1
     5     2     3    1
     6     2    29    1
     7     2    30    1
     8     3     4   am
     9     3    13    1
    10     4     5    2
    11     4     6    1
    12     6     7    1
    13     6    31    1
    14     6    32    1
    15     7    12    1
    16     7     8    2
    17     8     9    1
    18     8    10    1
    19     9    33    1
    20     9    34    1
    21     9    35    1
    22    10    11    2
    23    10    36    1
    24    11    12    1
    25    11    37    1
    26    13    14    1
    27    13    15    1
    28    13    16    1
    29    15    38    1
    30    15    39    1
    31    15    40    1
    32    16    17    1
    33    16    41    1
    34    16    42    1
    35    17    18   am
    36    17    43    1
    37    18    19    2
    38    18    20    1
    39    20    25    1
    40    20    21    2
    41    21    22    1
    42    21    44    1
    43    22    23    1
    44    23    24    1
    45    23    25    2
    46    24    45    1
    47    24    46    1
    48    24    47    1
    49    25    48    1
@<TRIPOS>SUBSTRUCTURE
     1 ZINC001371344729        1 TEMP              0 ****  ****    0 ROOT


##########                                Name:    ZINC000512699033
##########                DOCK_Rotatable_Bonds:                   9
##########                         Heavy_Atoms:                  30
##########                    Molecular_Weight:              405.54
##########                DOCK_Rotatable_Bonds:                   9
##########                       Formal_Charge:           0.0199988
##########                     HBond_Acceptors:                   5
##########                        HBond_Donors:                   2
##########                         Heavy_Atoms:                  30
##########                          Grid_Score:          -30.859974
##########                     Grid_vdw_energy:          -30.548452
##########                      Grid_es_energy:           -0.311521
##########           Internal_energy_repulsive:           13.611735

@<TRIPOS>MOLECULE
ZINC000512699033
 61 64 1 0 0
SMALL
USER_CHARGES


@<TRIPOS>ATOM
      1 O1        -12.6448    0.6354   54.2133 O.2     1  ZINC000512699033   -0.5100
      2 C2        -12.0311    0.2698   53.2331 C.2     1  ZINC000512699033    0.5200
      3 C3        -12.6538    0.3901   51.8661 C.3     1  ZINC000512699033   -0.1500
      4 C4        -14.1652    0.1778   51.9735 C.3     1  ZINC000512699033    0.1300
      5 N5        -14.7674    0.2713   50.6413 N.am    1  ZINC000512699033   -0.7300
      6 C6        -15.2236    1.4564   50.1897 C.2     1  ZINC000512699033    0.5200
      7 O7        -15.1370    2.4450   50.8867 O.2     1  ZINC000512699033   -0.5300
      8 C8        -15.8415    1.5529   48.8185 C.3     1  ZINC000512699033   -0.1100
      9 C9        -14.7539    1.8705   47.7903 C.3     1  ZINC000512699033   -0.1100
     10 C10       -15.3813    1.9685   46.3982 C.3     1  ZINC000512699033   -0.1200
     11 C11       -16.0455    0.6368   46.0432 C.3     1  ZINC000512699033   -0.1200
     12 C12       -17.1331    0.3192   47.0716 C.3     1  ZINC000512699033   -0.1200
     13 C13       -16.5058    0.2212   48.4636 C.3     1  ZINC000512699033   -0.1000
     14 N14       -10.7901   -0.2389   53.3659 N.am    1  ZINC000512699033   -0.6600
     15 C15       -10.2120   -0.3506   54.6353 C.ar    1  ZINC000512699033    0.1700
     16 C16       -10.7760   -1.1917   55.5852 C.ar    1  ZINC000512699033   -0.1400
     17 C17       -10.2025   -1.3002   56.8372 C.ar    1  ZINC000512699033   -0.1000
     18 C18        -9.0683   -0.5717   57.1450 C.ar    1  ZINC000512699033   -0.1400
     19 C19        -8.5042    0.2670   56.2012 C.ar    1  ZINC000512699033   -0.0900
     20 C20        -9.0694    0.3755   54.9459 C.ar    1  ZINC000512699033   -0.1200
     21 C21        -8.4539    1.2896   53.9179 C.3     1  ZINC000512699033    0.0900
     22 N22        -7.3422    0.5985   53.2511 N.3     1  ZINC000512699033   -0.4700
     23 C23        -7.8421   -0.3418   52.2246 C.3     1  ZINC000512699033    0.0500
     24 C24        -6.7076   -0.3303   51.1744 C.3     1  ZINC000512699033   -0.0900
     25 C25        -6.0648    1.0257   51.3881 C.ar    1  ZINC000512699033   -0.1400
     26 C26        -5.2035    1.7634   50.6040 C.ar    1  ZINC000512699033   -0.0800
     27 C27        -4.7592    3.0002   51.0364 C.ar    1  ZINC000512699033   -0.1400
     28 C28        -5.1807    3.4957   52.2565 C.ar    1  ZINC000512699033   -0.0900
     29 C29        -6.0407    2.7604   53.0458 C.ar    1  ZINC000512699033   -0.1400
     30 C30        -6.4903    1.5124   52.6186 C.ar    1  ZINC000512699033    0.0900
     31 H31       -12.4541    1.3825   51.4618 H       1  ZINC000512699033    0.1100
     32 H32       -12.2271   -0.3642   51.2048 H       1  ZINC000512699033    0.1000
     33 H33       -14.3647   -0.8077   52.3941 H       1  ZINC000512699033    0.0800
     34 H34       -14.5943    0.9427   52.6208 H       1  ZINC000512699033    0.0800
     35 H35       -14.8377   -0.5196   50.0843 H       1  ZINC000512699033    0.4000
     36 H36       -16.5899    2.3453   48.8123 H       1  ZINC000512699033    0.1000
     37 H37       -14.2807    2.8193   48.0431 H       1  ZINC000512699033    0.0700
     38 H38       -14.0055    1.0781   47.7965 H       1  ZINC000512699033    0.0700
     39 H39       -16.1297    2.7609   46.3920 H       1  ZINC000512699033    0.0600
     40 H40       -14.6066    2.1947   45.6656 H       1  ZINC000512699033    0.0700
     41 H41       -16.4925    0.7066   45.0515 H       1  ZINC000512699033    0.0600
     42 H42       -15.2971   -0.1556   46.0495 H       1  ZINC000512699033    0.0600
     43 H43       -17.8815    1.1115   47.0653 H       1  ZINC000512699033    0.0600
     44 H44       -17.6063   -0.6297   46.8186 H       1  ZINC000512699033    0.0700
     45 H45       -15.7572   -0.5712   48.4698 H       1  ZINC000512699033    0.0700
     46 H46       -17.2805   -0.0051   49.1961 H       1  ZINC000512699033    0.0700
     47 H47       -10.2978   -0.5275   52.5816 H       1  ZINC000512699033    0.4200
     48 H48       -11.6623   -1.7605   55.3454 H       1  ZINC000512699033    0.1500
     49 H49       -10.6408   -1.9542   57.5764 H       1  ZINC000512699033    0.1300
     50 H50        -8.6223   -0.6577   58.1249 H       1  ZINC000512699033    0.1200
     51 H51        -7.6183    0.8347   56.4446 H       1  ZINC000512699033    0.1200
     52 H52        -9.2066    1.5643   53.1789 H       1  ZINC000512699033    0.0600
     53 H53        -8.0809    2.1888   54.4082 H       1  ZINC000512699033    0.0900
     54 H54        -7.9705   -1.3396   52.6441 H       1  ZINC000512699033    0.1000
     55 H55        -8.7744    0.0194   51.7906 H       1  ZINC000512699033    0.0600
     56 H56        -5.9937   -1.1308   51.3686 H       1  ZINC000512699033    0.0900
     57 H57        -7.1141   -0.4102   50.1662 H       1  ZINC000512699033    0.0800
     58 H58        -4.8751    1.3753   49.6512 H       1  ZINC000512699033    0.1200
     59 H59        -4.0840    3.5775   50.4223 H       1  ZINC000512699033    0.1300
     60 H60        -4.8350    4.4618   52.5931 H       1  ZINC000512699033    0.1300
     61 H61        -6.3660    3.1529   53.9980 H       1  ZINC000512699033    0.1200
@<TRIPOS>BOND
     1     1     2    2
     2     2     3    1
     3     2    14   am
     4     3     4    1
     5     3    31    1
     6     3    32    1
     7     4     5    1
     8     4    33    1
     9     4    34    1
    10     5     6   am
    11     5    35    1
    12     6     7    2
    13     6     8    1
    14     8    13    1
    15     8     9    1
    16     8    36    1
    17     9    10    1
    18     9    37    1
    19     9    38    1
    20    10    11    1
    21    10    39    1
    22    10    40    1
    23    11    12    1
    24    11    41    1
    25    11    42    1
    26    12    13    1
    27    12    43    1
    28    12    44    1
    29    13    45    1
    30    13    46    1
    31    14    15    1
    32    14    47    1
    33    15    20   ar
    34    15    16   ar
    35    16    17   ar
    36    16    48    1
    37    17    18   ar
    38    17    49    1
    39    18    19   ar
    40    18    50    1
    41    19    20   ar
    42    19    51    1
    43    20    21    1
    44    21    22    1
    45    21    52    1
    46    21    53    1
    47    22    30    1
    48    22    23    1
    49    23    24    1
    50    23    54    1
    51    23    55    1
    52    24    25    1
    53    24    56    1
    54    24    57    1
    55    25    30   ar
    56    25    26   ar
    57    26    27   ar
    58    26    58    1
    59    27    28   ar
    60    27    59    1
    61    28    29   ar
    62    28    60    1
    63    29    30   ar
    64    29    61    1
@<TRIPOS>SUBSTRUCTURE
     1 ZINC000512699033        1 TEMP              0 ****  ****    0 ROOT


##########                                Name:    ZINC001326371752
##########                DOCK_Rotatable_Bonds:                   5
##########                         Heavy_Atoms:                  25
##########                    Molecular_Weight:             360.397
##########                DOCK_Rotatable_Bonds:                   5
##########                       Formal_Charge:           0.0199999
##########                     HBond_Acceptors:                  10
##########                        HBond_Donors:                   0
##########                         Heavy_Atoms:                  25
##########                          Grid_Score:          -30.848202
##########                     Grid_vdw_energy:          -30.206408
##########                      Grid_es_energy:           -0.641794
##########           Internal_energy_repulsive:            9.044493

@<TRIPOS>MOLECULE
ZINC001326371752
 41 44 1 0 0
SMALL
USER_CHARGES


@<TRIPOS>ATOM
      1 C1         -3.8615    1.7697   49.8777 C.3     1  ZINC001326371752    0.0300
      2 O2         -5.0286    1.9674   50.6783 O.3     1  ZINC001326371752   -0.3800
      3 C3         -6.2275    2.1507   49.9227 C.3     1  ZINC001326371752    0.0500
      4 C4         -7.3941    2.4216   50.8749 C.3     1  ZINC001326371752    0.1200
      5 N5         -7.7771    1.1762   51.5445 N.pl3   1  ZINC001326371752   -0.2800
      6 N6         -7.0616    0.1044   51.6199 N.2     1  ZINC001326371752   -0.0800
      7 N7         -7.6932   -0.8093   52.2765 N.2     1  ZINC001326371752   -0.2500
      8 C8         -8.8719   -0.3243   52.6496 C.2     1  ZINC001326371752   -0.0400
      9 C9         -8.9336    0.9512   52.1934 C.2     1  ZINC001326371752    0.0000
     10 C10       -10.0989    1.8804   52.4024 C.3     1  ZINC001326371752   -0.0600
     11 C11       -11.3292    1.0493   52.7904 C.3     1  ZINC001326371752    0.1200
     12 N12       -10.9425    0.0556   53.8028 N.am    1  ZINC001326371752   -0.6100
     13 C13       -11.4574    0.1026   55.0474 C.2     1  ZINC001326371752    0.6100
     14 O14       -12.2523    0.9750   55.3445 O.2     1  ZINC001326371752   -0.5100
     15 C15       -11.0595   -0.8979   56.0444 C.2     1  ZINC001326371752   -0.3400
     16 C16       -11.7390   -2.1178   56.1404 C.2     1  ZINC001326371752    0.2400
     17 N17       -11.3540   -2.9940   57.0487 N.2     1  ZINC001326371752   -0.5100
     18 C18       -10.3427   -2.7518   57.8722 C.2     1  ZINC001326371752    0.2900
     19 S19        -9.6597   -3.7193   59.1229 S.3     1  ZINC001326371752    0.2500
     20 C20        -8.4286   -2.5302   59.5761 C.2     1  ZINC001326371752   -0.2100
     21 C21        -8.6163   -1.5030   58.7648 C.2     1  ZINC001326371752    0.0500
     22 N22        -9.6321   -1.5940   57.8442 N.am    1  ZINC001326371752   -0.4600
     23 C23        -9.9804   -0.6502   56.9207 C.2     1  ZINC001326371752    0.5500
     24 O24        -9.3667    0.4009   56.8564 O.2     1  ZINC001326371752   -0.5000
     25 C25        -9.9764   -0.9927   53.4282 C.3     1  ZINC001326371752    0.2000
     26 H26        -2.9947    1.6385   50.5253 H       1  ZINC001326371752    0.0900
     27 H27        -3.9912    0.8812   49.2596 H       1  ZINC001326371752    0.0500
     28 H28        -3.7086    2.6385   49.2376 H       1  ZINC001326371752    0.0500
     29 H29        -6.1056    2.9977   49.2474 H       1  ZINC001326371752    0.0600
     30 H30        -6.4330    1.2506   49.3432 H       1  ZINC001326371752    0.0600
     31 H31        -7.0914    3.1568   51.6204 H       1  ZINC001326371752    0.1200
     32 H32        -8.2429    2.8059   50.3094 H       1  ZINC001326371752    0.1200
     33 H33        -9.8664    2.5842   53.2016 H       1  ZINC001326371752    0.0900
     34 H34       -10.3019    2.4252   51.4804 H       1  ZINC001326371752    0.1000
     35 H35       -12.0976    1.7055   53.1992 H       1  ZINC001326371752    0.1100
     36 H36       -11.7166    0.5390   51.9086 H       1  ZINC001326371752    0.0800
     37 H37       -12.5659   -2.3383   55.4815 H       1  ZINC001326371752    0.1900
     38 H38        -7.6827   -2.6238   60.3515 H       1  ZINC001326371752    0.2200
     39 H39        -7.9928   -0.6232   58.8239 H       1  ZINC001326371752    0.2000
     40 H40       -10.4640   -1.7407   52.8031 H       1  ZINC001326371752    0.1000
     41 H41        -9.5726   -1.4628   54.3248 H       1  ZINC001326371752    0.1000
@<TRIPOS>BOND
     1     1     2    1
     2     1    26    1
     3     1    27    1
     4     1    28    1
     5     2     3    1
     6     3     4    1
     7     3    29    1
     8     3    30    1
     9     4     5    1
    10     4    31    1
    11     4    32    1
    12     5     9    1
    13     5     6    1
    14     6     7    2
    15     7     8    1
    16     8    25    1
    17     8     9    2
    18     9    10    1
    19    10    11    1
    20    10    33    1
    21    10    34    1
    22    11    12    1
    23    11    35    1
    24    11    36    1
    25    12    13   am
    26    12    25    1
    27    13    14    2
    28    13    15    1
    29    15    23    1
    30    15    16    2
    31    16    17    1
    32    16    37    1
    33    17    18    2
    34    18    22    1
    35    18    19    1
    36    19    20    1
    37    20    21    2
    38    20    38    1
    39    21    22    1
    40    21    39    1
    41    22    23   am
    42    23    24    2
    43    25    40    1
    44    25    41    1
@<TRIPOS>SUBSTRUCTURE
     1 ZINC001326371752        1 TEMP              0 ****  ****    0 ROOT


##########                                Name:    ZINC000151820600
##########                DOCK_Rotatable_Bonds:                  10
##########                         Heavy_Atoms:                  25
##########                    Molecular_Weight:             388.915
##########                DOCK_Rotatable_Bonds:                  10
##########                       Formal_Charge:           0.0499998
##########                     HBond_Acceptors:                   8
##########                        HBond_Donors:                   2
##########                         Heavy_Atoms:                  25
##########                          Grid_Score:          -30.846960
##########                     Grid_vdw_energy:          -28.654140
##########                      Grid_es_energy:           -2.192819
##########           Internal_energy_repulsive:           35.540237

@<TRIPOS>MOLECULE
ZINC000151820600
 50 50 1 0 0
SMALL
USER_CHARGES


@<TRIPOS>ATOM
      1 C1         -9.2109    1.0095   60.7157 C.3     1  ZINC000151820600   -0.4900
      2 S2         -8.8152   -0.6490   60.0965 S.o     1  ZINC000151820600    1.2500
      3 O3         -7.6747   -0.5795   59.2517 O.2     1  ZINC000151820600   -0.8500
      4 C4        -10.2752   -1.0744   59.1076 C.3     1  ZINC000151820600   -0.4500
      5 C5        -10.0947   -2.4694   58.5058 C.3     1  ZINC000151820600   -0.1100
      6 C6        -11.3408   -2.8425   57.7002 C.3     1  ZINC000151820600    0.1200
      7 N7        -11.4298   -1.9870   56.5143 N.am    1  ZINC000151820600   -0.7200
      8 C8        -10.7249   -2.2940   55.4074 C.2     1  ZINC000151820600    0.5200
      9 O9        -10.0157   -3.2779   55.3936 O.2     1  ZINC000151820600   -0.5200
     10 C10       -10.8179   -1.4151   54.1869 C.3     1  ZINC000151820600    0.1900
     11 H11       -10.9991   -2.0327   53.3072 H       1  ZINC000151820600    0.1300
     12 N12       -11.9209   -0.4650   54.3521 N.am    1  ZINC000151820600   -0.6900
     13 C13       -12.4649    0.1304   53.2723 C.2     1  ZINC000151820600    0.6600
     14 O14       -12.0396   -0.1196   52.1618 O.2     1  ZINC000151820600   -0.5600
     15 O15       -13.4795    1.0022   53.4240 O.3     1  ZINC000151820600   -0.3600
     16 C16       -14.1315    1.4719   52.2146 C.3     1  ZINC000151820600    0.1400
     17 C17       -15.3070    2.3774   52.5876 C.3     1  ZINC000151820600   -0.1800
     18 C18       -13.1295    2.2597   51.3682 C.3     1  ZINC000151820600   -0.1400
     19 C19       -14.6448    0.2738   51.4136 C.3     1  ZINC000151820600   -0.1800
     20 C20        -9.5258   -0.6593   54.0125 C.ar    1  ZINC000151820600   -0.1000
     21 C21        -8.9962    0.0570   55.0694 C.ar    1  ZINC000151820600   -0.0900
     22 C22        -7.8105    0.7502   54.9103 C.ar    1  ZINC000151820600   -0.1000
     23 C23        -7.1545    0.7277   53.6943 C.ar    1  ZINC000151820600   -0.1000
     24 C24        -7.6842    0.0108   52.6358 C.ar    1  ZINC000151820600   -0.0300
     25 Cl25       -6.8604   -0.0183   51.1080 Cl      1  ZINC000151820600   -0.0600
     26 C26        -8.8675   -0.6871   52.7973 C.ar    1  ZINC000151820600   -0.0900
     27 H27        -9.3583    1.6861   59.8739 H       1  ZINC000151820600    0.0800
     28 H28       -10.1227    0.9669   61.3116 H       1  ZINC000151820600    0.1100
     29 H29        -8.3895    1.3722   61.3338 H       1  ZINC000151820600    0.1100
     30 H30       -11.1603   -1.0649   59.7437 H       1  ZINC000151820600    0.1200
     31 H31       -10.3959   -0.3457   58.3060 H       1  ZINC000151820600    0.0900
     32 H32        -9.2239   -2.4724   57.8502 H       1  ZINC000151820600    0.0800
     33 H33        -9.9491   -3.1945   59.3065 H       1  ZINC000151820600    0.0900
     34 H34       -11.2749   -3.8858   57.3915 H       1  ZINC000151820600    0.0800
     35 H35       -12.2281   -2.7015   58.3174 H       1  ZINC000151820600    0.0700
     36 H36       -11.9961   -1.1995   56.5257 H       1  ZINC000151820600    0.4000
     37 H37       -12.2595   -0.2645   55.2387 H       1  ZINC000151820600    0.4200
     38 H38       -14.9413    3.2311   53.1583 H       1  ZINC000151820600    0.0600
     39 H39       -15.7964    2.7300   51.6797 H       1  ZINC000151820600    0.0700
     40 H40       -16.0208    1.8161   53.1905 H       1  ZINC000151820600    0.0900
     41 H41       -12.2920    1.6148   51.1024 H       1  ZINC000151820600    0.0700
     42 H42       -13.6188    2.6124   50.4603 H       1  ZINC000151820600    0.0800
     43 H43       -12.7638    3.1134   51.9389 H       1  ZINC000151820600    0.0700
     44 H44       -15.3586   -0.2875   52.0165 H       1  ZINC000151820600    0.0900
     45 H45       -15.1341    0.6264   50.5057 H       1  ZINC000151820600    0.0700
     46 H46       -13.8073   -0.3713   51.1478 H       1  ZINC000151820600    0.0600
     47 H47        -9.5089    0.0754   56.0198 H       1  ZINC000151820600    0.1300
     48 H48        -7.3972    1.3097   55.7365 H       1  ZINC000151820600    0.1400
     49 H49        -6.2288    1.2699   53.5699 H       1  ZINC000151820600    0.1400
     50 H50        -9.2814   -1.2468   51.9715 H       1  ZINC000151820600    0.1400
@<TRIPOS>BOND
     1     1     2    1
     2     1    27    1
     3     1    28    1
     4     1    29    1
     5     2     3    2
     6     2     4    1
     7     4     5    1
     8     4    30    1
     9     4    31    1
    10     5     6    1
    11     5    32    1
    12     5    33    1
    13     6     7    1
    14     6    34    1
    15     6    35    1
    16     7     8   am
    17     7    36    1
    18     8     9    2
    19     8    10    1
    20    10    11    1
    21    10    12    1
    22    10    20    1
    23    12    13   am
    24    12    37    1
    25    13    14    2
    26    13    15    1
    27    15    16    1
    28    16    17    1
    29    16    18    1
    30    16    19    1
    31    17    38    1
    32    17    39    1
    33    17    40    1
    34    18    41    1
    35    18    42    1
    36    18    43    1
    37    19    44    1
    38    19    45    1
    39    19    46    1
    40    20    26   ar
    41    20    21   ar
    42    21    22   ar
    43    21    47    1
    44    22    23   ar
    45    22    48    1
    46    23    24   ar
    47    23    49    1
    48    24    25    1
    49    24    26   ar
    50    26    50    1
@<TRIPOS>SUBSTRUCTURE
     1 ZINC000151820600        1 TEMP              0 ****  ****    0 ROOT


##########                                Name:    ZINC001009116151
##########                DOCK_Rotatable_Bonds:                   6
##########                         Heavy_Atoms:                  25
##########                    Molecular_Weight:             342.481
##########                DOCK_Rotatable_Bonds:                   6
##########                       Formal_Charge:           0.0600006
##########                     HBond_Acceptors:                   4
##########                        HBond_Donors:                   1
##########                         Heavy_Atoms:                  25
##########                          Grid_Score:          -30.838633
##########                     Grid_vdw_energy:          -30.390320
##########                      Grid_es_energy:           -0.448312
##########           Internal_energy_repulsive:           16.541708

@<TRIPOS>MOLECULE
ZINC001009116151
 55 59 1 0 0
SMALL
USER_CHARGES


@<TRIPOS>ATOM
      1 O1         -8.2212   -0.5932   51.3077 O.2     1  ZINC001009116151   -0.5400
      2 C2         -8.5074    0.5536   51.5795 C.2     1  ZINC001009116151    0.5200
      3 N3         -9.7490    0.8545   52.0089 N.am    1  ZINC001009116151   -0.7300
      4 C4        -10.7545   -0.2026   52.1416 C.3     1  ZINC001009116151    0.1500
      5 C5        -10.9816   -0.5075   53.6236 C.3     1  ZINC001009116151   -0.1200
      6 H6        -12.0059   -0.7579   53.8997 H       1  ZINC001009116151    0.1100
      7 C7        -10.1485    0.2754   54.6403 C.3     1  ZINC001009116151   -0.1700
      8 H8         -9.4784    1.0622   54.2940 H       1  ZINC001009116151    0.1200
      9 C9        -10.6673    0.3646   56.0917 C.3     1  ZINC001009116151    0.1300
     10 N10       -10.1301   -0.8460   56.7557 N.am    1  ZINC001009116151   -0.6200
     11 C11        -9.6362   -0.9532   58.0051 C.2     1  ZINC001009116151    0.5500
     12 O12        -9.2293   -2.0228   58.4067 O.2     1  ZINC001009116151   -0.5300
     13 C13        -9.5894    0.2562   58.9031 C.3     1  ZINC001009116151   -0.1200
     14 C14       -10.8705    0.3592   59.7629 C.3     1  ZINC001009116151   -0.0900
     15 C15       -10.5229   -0.3417   61.0556 C.2     1  ZINC001009116151   -0.1800
     16 C16        -9.2315   -0.4843   61.1803 C.2     1  ZINC001009116151   -0.1500
     17 C17        -8.5025    0.0976   59.9916 C.3     1  ZINC001009116151   -0.0900
     18 C18       -10.2592   -1.9117   55.7349 C.3     1  ZINC001009116151    0.1200
     19 C19        -9.8547   -1.2150   54.3787 C.3     1  ZINC001009116151   -0.1600
     20 H20        -8.9563   -1.5724   53.8754 H       1  ZINC001009116151    0.1300
     21 C21        -7.4731    1.6411   51.4430 C.3     1  ZINC001009116151   -0.0700
     22 C22        -6.5155    1.2939   50.3014 C.3     1  ZINC001009116151   -0.1100
     23 C23        -5.4655    2.3979   50.1629 C.3     1  ZINC001009116151   -0.1100
     24 C24        -5.7230    3.4812   51.2121 C.3     1  ZINC001009116151   -0.0900
     25 C25        -7.1175    4.0743   51.0012 C.3     1  ZINC001009116151   -0.1100
     26 C26        -8.1675    2.9703   51.1397 C.3     1  ZINC001009116151   -0.0900
     27 C27        -5.6361    2.8674   52.6109 C.3     1  ZINC001009116151   -0.1100
     28 C28        -6.6862    1.7633   52.7494 C.3     1  ZINC001009116151   -0.1000
     29 H29        -9.9769    1.7711   52.2300 H       1  ZINC001009116151    0.4000
     30 H30       -11.6905    0.1276   51.6910 H       1  ZINC001009116151    0.0800
     31 H31       -10.4049   -1.1022   51.6350 H       1  ZINC001009116151    0.0700
     32 H32       -10.2876    1.2641   56.5765 H       1  ZINC001009116151    0.0900
     33 H33       -11.7571    0.3547   56.1072 H       1  ZINC001009116151    0.0800
     34 H34        -9.4324    1.1656   58.3231 H       1  ZINC001009116151    0.1100
     35 H35       -11.1179    1.4037   59.9519 H       1  ZINC001009116151    0.0900
     36 H36       -11.7008   -0.1454   59.2688 H       1  ZINC001009116151    0.0800
     37 H37       -11.2477   -0.6799   61.7812 H       1  ZINC001009116151    0.1300
     38 H38        -8.7475   -0.9560   62.0227 H       1  ZINC001009116151    0.1300
     39 H39        -7.7228   -0.5848   59.6530 H       1  ZINC001009116151    0.0900
     40 H40        -8.0751    1.0675   60.2458 H       1  ZINC001009116151    0.0900
     41 H41        -9.5717   -2.7297   55.9503 H       1  ZINC001009116151    0.0900
     42 H42       -11.2853   -2.2771   55.6945 H       1  ZINC001009116151    0.0800
     43 H43        -6.0208    0.3470   50.5175 H       1  ZINC001009116151    0.0700
     44 H44        -7.0762    1.2068   49.3707 H       1  ZINC001009116151    0.0700
     45 H45        -4.4719    1.9754   50.3132 H       1  ZINC001009116151    0.0700
     46 H46        -5.5273    2.8353   49.1664 H       1  ZINC001009116151    0.0700
     47 H47        -4.9748    4.2678   51.1134 H       1  ZINC001009116151    0.0700
     48 H48        -7.3009    4.8462   51.7488 H       1  ZINC001009116151    0.0700
     49 H49        -7.1794    4.5117   50.0047 H       1  ZINC001009116151    0.0700
     50 H50        -8.7282    2.8832   50.2090 H       1  ZINC001009116151    0.0700
     51 H51        -8.8498    3.2176   51.9530 H       1  ZINC001009116151    0.0700
     52 H52        -4.6426    2.4448   52.7612 H       1  ZINC001009116151    0.0700
     53 H53        -5.8196    3.6392   53.3584 H       1  ZINC001009116151    0.0700
     54 H54        -7.3684    2.0107   53.5628 H       1  ZINC001009116151    0.0700
     55 H55        -6.1915    0.8164   52.9655 H       1  ZINC001009116151    0.0700
@<TRIPOS>BOND
     1     1     2    2
     2     2     3   am
     3     2    21    1
     4     3     4    1
     5     3    29    1
     6     4     5    1
     7     4    30    1
     8     4    31    1
     9     5     6    1
    10     5    19    1
    11     5     7    1
    12     7     8    1
    13     7    19    1
    14     7     9    1
    15     9    10    1
    16     9    32    1
    17     9    33    1
    18    10    11   am
    19    10    18    1
    20    11    12    2
    21    11    13    1
    22    13    17    1
    23    13    14    1
    24    13    34    1
    25    14    15    1
    26    14    35    1
    27    14    36    1
    28    15    16    2
    29    15    37    1
    30    16    17    1
    31    16    38    1
    32    17    39    1
    33    17    40    1
    34    18    19    1
    35    18    41    1
    36    18    42    1
    37    19    20    1
    38    21    26    1
    39    21    28    1
    40    21    22    1
    41    22    23    1
    42    22    43    1
    43    22    44    1
    44    23    24    1
    45    23    45    1
    46    23    46    1
    47    24    25    1
    48    24    27    1
    49    24    47    1
    50    25    26    1
    51    25    48    1
    52    25    49    1
    53    26    50    1
    54    26    51    1
    55    27    28    1
    56    27    52    1
    57    27    53    1
    58    28    54    1
    59    28    55    1
@<TRIPOS>SUBSTRUCTURE
     1 ZINC001009116151        1 TEMP              0 ****  ****    0 ROOT


##########                                Name:    ZINC001060578637
##########                DOCK_Rotatable_Bonds:                  10
##########                         Heavy_Atoms:                  25
##########                    Molecular_Weight:             345.401
##########                DOCK_Rotatable_Bonds:                  10
##########                       Formal_Charge:          -0.0400001
##########                     HBond_Acceptors:                   8
##########                        HBond_Donors:                   3
##########                         Heavy_Atoms:                  25
##########                          Grid_Score:          -30.823158
##########                     Grid_vdw_energy:          -31.018995
##########                      Grid_es_energy:            0.195837
##########           Internal_energy_repulsive:           19.444469

@<TRIPOS>MOLECULE
ZINC001060578637
 48 49 1 0 0
SMALL
USER_CHARGES


@<TRIPOS>ATOM
      1 C1         -9.2427   -0.2405   53.2110 C.3     1  ZINC001060578637   -0.1500
      2 C2         -8.5866    0.3821   51.9771 C.3     1  ZINC001060578637   -0.1300
      3 C3         -7.0699    0.4264   52.1734 C.3     1  ZINC001060578637    0.0700
      4 H4         -6.6656   -0.5838   52.1094 H       1  ZINC001060578637    0.0900
      5 O5         -6.7718    0.9781   53.4574 O.3     1  ZINC001060578637   -0.3600
      6 C6         -7.2604    2.3077   53.6465 C.3     1  ZINC001060578637    0.0300
      7 C7         -6.4493    1.2847   51.1015 C.2     1  ZINC001060578637    0.5000
      8 O8         -6.9198    1.2936   49.9837 O.2     1  ZINC001060578637   -0.5200
      9 N9         -5.3714    2.0426   51.3850 N.am    1  ZINC001060578637   -0.7300
     10 C10        -4.7691    2.8784   50.3434 C.3     1  ZINC001060578637    0.1600
     11 C11        -3.2994    3.0532   50.6269 C.ar    1  ZINC001060578637   -0.1100
     12 C12        -2.8740    4.0568   51.4770 C.ar    1  ZINC001060578637   -0.0900
     13 C13        -1.5258    4.2171   51.7370 C.ar    1  ZINC001060578637   -0.1100
     14 C14        -0.6031    3.3734   51.1474 C.ar    1  ZINC001060578637   -0.0900
     15 C15         0.8667    3.5484   51.4305 C.3     1  ZINC001060578637    0.1800
     16 H16         0.9947    4.0446   52.3926 H       1  ZINC001060578637    0.1000
     17 C17         1.5003    4.4004   50.3289 C.3     1  ZINC001060578637   -0.1600
     18 N18         1.5166    2.2360   51.4675 N.am    1  ZINC001060578637   -0.7000
     19 C19         2.7191    2.0959   52.0599 C.2     1  ZINC001060578637    0.6100
     20 O20         3.2652    3.0592   52.5622 O.2     1  ZINC001060578637   -0.5300
     21 C21         3.3723    0.7746   52.0987 C.2     1  ZINC001060578637    0.1200
     22 N22         4.5682    0.5059   52.5776 N.2     1  ZINC001060578637   -0.2400
     23 N23         4.8094   -0.7503   52.4469 N.2     1  ZINC001060578637   -0.2900
     24 C24         3.7875   -1.3457   51.8819 C.2     1  ZINC001060578637    0.1900
     25 N25         2.8470   -0.4091   51.6481 N.pl3   1  ZINC001060578637   -0.5500
     26 C26        -1.0287    2.3689   50.2985 C.ar    1  ZINC001060578637   -0.1100
     27 C27        -2.3770    2.2061   50.0414 C.ar    1  ZINC001060578637   -0.0900
     28 H28       -10.3202   -0.3005   53.0583 H       1  ZINC001060578637    0.0600
     29 H29        -8.8419   -1.2416   53.3695 H       1  ZINC001060578637    0.0500
     30 H30        -9.0334    0.3772   54.0844 H       1  ZINC001060578637    0.0600
     31 H31        -8.8218   -0.2186   51.0985 H       1  ZINC001060578637    0.0800
     32 H32        -8.9645    1.3949   51.8365 H       1  ZINC001060578637    0.0800
     33 H33        -7.0616    2.6259   54.6699 H       1  ZINC001060578637    0.0900
     34 H34        -6.7579    2.9815   52.9524 H       1  ZINC001060578637    0.0500
     35 H35        -8.3343    2.3298   53.4612 H       1  ZINC001060578637    0.0400
     36 H36        -4.9944    2.0344   52.2787 H       1  ZINC001060578637    0.4000
     37 H37        -4.8975    2.3987   49.3732 H       1  ZINC001060578637    0.0800
     38 H38        -5.2558    3.8537   50.3338 H       1  ZINC001060578637    0.0800
     39 H39        -3.5949    4.7159   51.9377 H       1  ZINC001060578637    0.1300
     40 H40        -1.1934    5.0017   52.4006 H       1  ZINC001060578637    0.1300
     41 H41         1.3722    3.9042   49.3669 H       1  ZINC001060578637    0.0600
     42 H42         1.0168    5.3769   50.3013 H       1  ZINC001060578637    0.0700
     43 H43         2.5634    4.5269   50.5337 H       1  ZINC001060578637    0.0700
     44 H44         1.0814    1.4678   51.0657 H       1  ZINC001060578637    0.4100
     45 H45         3.7114   -2.3976   51.6493 H       1  ZINC001060578637    0.2300
     46 H46         1.9779   -0.5439   51.2391 H       1  ZINC001060578637    0.4400
     47 H47        -0.3078    1.7095   49.8381 H       1  ZINC001060578637    0.1300
     48 H48        -2.7095    1.4214   49.3781 H       1  ZINC001060578637    0.1300
@<TRIPOS>BOND
     1     1     2    1
     2     1    28    1
     3     1    29    1
     4     1    30    1
     5     2     3    1
     6     2    31    1
     7     2    32    1
     8     3     4    1
     9     3     5    1
    10     3     7    1
    11     5     6    1
    12     6    33    1
    13     6    34    1
    14     6    35    1
    15     7     8    2
    16     7     9   am
    17     9    10    1
    18     9    36    1
    19    10    11    1
    20    10    37    1
    21    10    38    1
    22    11    27   ar
    23    11    12   ar
    24    12    13   ar
    25    12    39    1
    26    13    14   ar
    27    13    40    1
    28    14    15    1
    29    14    26   ar
    30    15    16    1
    31    15    17    1
    32    15    18    1
    33    17    41    1
    34    17    42    1
    35    17    43    1
    36    18    19   am
    37    18    44    1
    38    19    20    2
    39    19    21    1
    40    21    25    1
    41    21    22    2
    42    22    23    1
    43    23    24    2
    44    24    25    1
    45    24    45    1
    46    25    46    1
    47    26    27   ar
    48    26    47    1
    49    27    48    1
@<TRIPOS>SUBSTRUCTURE
     1 ZINC001060578637        1 TEMP              0 ****  ****    0 ROOT


##########                                Name:    ZINC000876376999
##########                DOCK_Rotatable_Bonds:                   7
##########                         Heavy_Atoms:                  24
##########                    Molecular_Weight:             358.502
##########                DOCK_Rotatable_Bonds:                   7
##########                       Formal_Charge:          -0.0299994
##########                     HBond_Acceptors:                   7
##########                        HBond_Donors:                   2
##########                         Heavy_Atoms:                  24
##########                          Grid_Score:          -30.814949
##########                     Grid_vdw_energy:          -30.249502
##########                      Grid_es_energy:           -0.565446
##########           Internal_energy_repulsive:           32.011177

@<TRIPOS>MOLECULE
ZINC000876376999
 54 56 1 0 0
SMALL
USER_CHARGES


@<TRIPOS>ATOM
      1 C1         -9.4222    0.2743   61.5551 C.3     1  ZINC000876376999   -0.1500
      2 C2        -10.3120    0.3501   60.3128 C.3     1  ZINC000876376999   -0.1100
      3 C3         -9.9724   -0.8067   59.3709 C.3     1  ZINC000876376999   -0.0700
      4 C4         -8.4654   -0.8249   59.1071 C.3     1  ZINC000876376999    0.0900
      5 O5         -8.0267    0.4899   58.7601 O.3     1  ZINC000876376999   -0.5600
      6 C6        -10.3951   -2.1297   60.0137 C.3     1  ZINC000876376999   -0.1100
      7 C7        -10.0261   -3.2902   59.0867 C.3     1  ZINC000876376999   -0.1400
      8 C8        -10.7754   -3.1364   57.7593 C.3     1  ZINC000876376999    0.1100
      9 N9        -10.4877   -1.8064   57.2053 N.am    1  ZINC000876376999   -0.6300
     10 C10       -10.0188   -1.6726   55.9488 C.2     1  ZINC000876376999    0.7100
     11 O11        -9.8299   -2.6581   55.2621 O.2     1  ZINC000876376999   -0.5800
     12 N12        -9.7592   -0.4463   55.4535 N.am    1  ZINC000876376999   -0.7500
     13 C13        -9.2496   -0.3008   54.0877 C.3     1  ZINC000876376999    0.1400
     14 C14        -8.9314    1.1745   53.8153 C.3     1  ZINC000876376999   -0.1100
     15 C15        -7.5107    1.4844   54.2014 C.3     1  ZINC000876376999   -0.1100
     16 C16        -6.4938    1.5101   53.0543 C.3     1  ZINC000876376999   -0.5200
     17 H17        -5.4647    1.7122   53.3825 H       1  ZINC000876376999    0.1500
     18 C18        -6.6326    0.1800   52.2788 C.3     1  ZINC000876376999   -0.1200
     19 C19        -7.7807    0.2427   51.2773 C.3     1  ZINC000876376999   -0.1200
     20 C20        -8.4841    1.6188   51.3182 C.3     1  ZINC000876376999   -0.5300
     21 H21        -8.9337    1.9016   50.3562 H       1  ZINC000876376999    0.1500
     22 C22        -9.4842    1.5923   52.4800 C.3     1  ZINC000876376999   -0.1000
     23 S23        -7.1258    2.7455   51.8440 S.o2    1  ZINC000876376999    2.3700
     24 O24        -7.6583    3.8725   52.5249 O.2     1  ZINC000876376999   -0.9300
     25 O25        -6.1933    2.9153   50.7856 O.2     1  ZINC000876376999   -0.9300
     26 C26       -10.7211   -0.6248   58.0468 C.3     1  ZINC000876376999    0.1400
     27 H27        -9.6528   -0.6337   62.1123 H       1  ZINC000876376999    0.0500
     28 H28        -8.3755    0.2585   61.2519 H       1  ZINC000876376999    0.0600
     29 H29        -9.6047    1.1440   62.1863 H       1  ZINC000876376999    0.0500
     30 H30       -11.3583    0.2812   60.6104 H       1  ZINC000876376999    0.0600
     31 H31       -10.1415    1.2973   59.8011 H       1  ZINC000876376999    0.0700
     32 H32        -7.9435   -1.1572   60.0045 H       1  ZINC000876376999    0.0500
     33 H33        -8.2485   -1.5088   58.2865 H       1  ZINC000876376999    0.0400
     34 H34        -8.1626    1.1467   59.4566 H       1  ZINC000876376999    0.3800
     35 H35        -9.8823   -2.2500   60.9679 H       1  ZINC000876376999    0.0700
     36 H36       -11.4726   -2.1253   60.1787 H       1  ZINC000876376999    0.0700
     37 H37        -8.9520   -3.2803   58.9013 H       1  ZINC000876376999    0.0700
     38 H38       -10.3063   -4.2335   59.5553 H       1  ZINC000876376999    0.0800
     39 H39       -10.4418   -3.9034   57.0604 H       1  ZINC000876376999    0.0700
     40 H40       -11.8471   -3.2365   57.9310 H       1  ZINC000876376999    0.0700
     41 H41        -9.9097    0.3399   56.0013 H       1  ZINC000876376999    0.3900
     42 H42        -8.3431   -0.8952   53.9729 H       1  ZINC000876376999    0.0800
     43 H43       -10.0030   -0.6466   53.3799 H       1  ZINC000876376999    0.0700
     44 H44        -9.5600    1.7257   54.5705 H       1  ZINC000876376999    0.0900
     45 H45        -7.4853    2.4619   54.7141 H       1  ZINC000876376999    0.0900
     46 H46        -7.1745    0.7476   54.9515 H       1  ZINC000876376999    0.0900
     47 H47        -5.7035   -0.0052   51.7309 H       1  ZINC000876376999    0.0800
     48 H48        -6.7903   -0.6403   52.9728 H       1  ZINC000876376999    0.0900
     49 H49        -7.3747    0.0860   50.2731 H       1  ZINC000876376999    0.0800
     50 H50        -8.4969   -0.5471   51.4844 H       1  ZINC000876376999    0.0900
     51 H51       -10.3168    0.9193   52.2105 H       1  ZINC000876376999    0.0900
     52 H52        -9.9340    2.5959   52.5780 H       1  ZINC000876376999    0.0900
     53 H53       -11.7884   -0.5203   58.2420 H       1  ZINC000876376999    0.0600
     54 H54       -10.3517    0.2654   57.5376 H       1  ZINC000876376999    0.1000
@<TRIPOS>BOND
     1     1     2    1
     2     1    27    1
     3     1    28    1
     4     1    29    1
     5     2     3    1
     6     2    30    1
     7     2    31    1
     8     3    26    1
     9     3     4    1
    10     3     6    1
    11     4     5    1
    12     4    32    1
    13     4    33    1
    14     5    34    1
    15     6     7    1
    16     6    35    1
    17     6    36    1
    18     7     8    1
    19     7    37    1
    20     7    38    1
    21     8     9    1
    22     8    39    1
    23     8    40    1
    24     9    10   am
    25     9    26    1
    26    10    11    2
    27    10    12   am
    28    12    13    1
    29    12    41    1
    30    13    14    1
    31    13    42    1
    32    13    43    1
    33    14    22    1
    34    14    15    1
    35    14    44    1
    36    15    16    1
    37    15    45    1
    38    15    46    1
    39    16    17    1
    40    16    23    1
    41    16    18    1
    42    18    19    1
    43    18    47    1
    44    18    48    1
    45    19    20    1
    46    19    49    1
    47    19    50    1
    48    20    21    1
    49    20    22    1
    50    20    23    1
    51    22    51    1
    52    22    52    1
    53    23    24    2
    54    23    25    2
    55    26    53    1
    56    26    54    1
@<TRIPOS>SUBSTRUCTURE
     1 ZINC000876376999        1 TEMP              0 ****  ****    0 ROOT


##########                                Name:    ZINC000654672208
##########                DOCK_Rotatable_Bonds:                   5
##########                         Heavy_Atoms:                  25
##########                    Molecular_Weight:             365.497
##########                DOCK_Rotatable_Bonds:                   5
##########                       Formal_Charge:           0.0100001
##########                     HBond_Acceptors:                   7
##########                        HBond_Donors:                   1
##########                         Heavy_Atoms:                  25
##########                          Grid_Score:          -30.781441
##########                     Grid_vdw_energy:          -30.096241
##########                      Grid_es_energy:           -0.685200
##########           Internal_energy_repulsive:           17.888075

@<TRIPOS>MOLECULE
ZINC000654672208
 52 54 1 0 0
SMALL
USER_CHARGES


@<TRIPOS>ATOM
      1 C1         -5.1523    2.1506   49.7547 C.3     1  ZINC000654672208   -0.1100
      2 C2         -6.3341    1.6765   50.5608 C.ar    1  ZINC000654672208   -0.1300
      3 C3         -6.2822    0.4724   51.2368 C.ar    1  ZINC000654672208    0.1000
      4 N4         -7.3122    0.0511   51.9445 N.ar    1  ZINC000654672208   -0.4700
      5 C5         -8.4242    0.7538   52.0365 C.ar    1  ZINC000654672208    0.1200
      6 C6         -9.5722    0.2271   52.8586 C.3     1  ZINC000654672208   -0.0900
      7 C7         -9.5808    0.9175   54.2238 C.3     1  ZINC000654672208    0.1500
      8 N8         -9.9172   -0.0590   55.2628 N.am    1  ZINC000654672208   -0.7500
      9 C9        -11.1942   -0.1950   55.6717 C.2     1  ZINC000654672208    0.7100
     10 O10       -12.0670    0.4929   55.1784 O.2     1  ZINC000654672208   -0.5800
     11 N11       -11.5037   -1.0933   56.6275 N.am    1  ZINC000654672208   -0.6300
     12 C12       -12.8913   -1.2526   57.0833 C.3     1  ZINC000654672208    0.1300
     13 C13       -12.9286   -1.1043   58.6075 C.3     1  ZINC000654672208   -0.1400
     14 C14       -11.9437   -2.0915   59.2369 C.3     1  ZINC000654672208   -0.1100
     15 C15       -10.5225   -1.7716   58.7580 C.3     1  ZINC000654672208   -0.0600
     16 C16        -9.5418   -2.7558   59.4038 C.3     1  ZINC000654672208   -0.1200
     17 C17        -8.1654   -2.0586   59.5561 C.3     1  ZINC000654672208   -0.5800
     18 S18        -8.6744   -0.3901   60.1362 S.o2    1  ZINC000654672208    2.3800
     19 O19        -9.0255   -0.4500   61.5119 O.2     1  ZINC000654672208   -0.9300
     20 O20        -7.7398    0.5787   59.6813 O.2     1  ZINC000654672208   -0.9300
     21 C21       -10.1943   -0.3120   59.1165 C.3     1  ZINC000654672208   -0.5800
     22 C22       -10.4608   -1.9353   57.2283 C.3     1  ZINC000654672208    0.1200
     23 C23        -8.5490    1.9680   51.3879 C.ar    1  ZINC000654672208   -0.1200
     24 C24        -9.8233    2.7649   51.4987 C.3     1  ZINC000654672208   -0.1200
     25 C25        -7.4852    2.4458   50.6382 C.ar    1  ZINC000654672208   -0.0800
     26 H26        -4.4928    2.7418   50.3900 H       1  ZINC000654672208    0.0700
     27 H27        -4.6077    1.2894   49.3674 H       1  ZINC000654672208    0.0700
     28 H28        -5.5017    2.7633   48.9237 H       1  ZINC000654672208    0.0700
     29 H29        -5.3880   -0.1309   51.1845 H       1  ZINC000654672208    0.1600
     30 H30       -10.5111    0.4295   52.3431 H       1  ZINC000654672208    0.0900
     31 H31        -9.4575   -0.8481   52.9959 H       1  ZINC000654672208    0.0900
     32 H32        -8.5951    1.3372   54.4250 H       1  ZINC000654672208    0.0700
     33 H33       -10.3224    1.7164   54.2224 H       1  ZINC000654672208    0.0700
     34 H34        -9.2208   -0.6077   55.6564 H       1  ZINC000654672208    0.3900
     35 H35       -13.5165   -0.4857   56.6259 H       1  ZINC000654672208    0.1000
     36 H36       -13.2569   -2.2405   56.8031 H       1  ZINC000654672208    0.0700
     37 H37       -12.6486   -0.0869   58.8809 H       1  ZINC000654672208    0.0700
     38 H38       -13.9353   -1.3145   58.9689 H       1  ZINC000654672208    0.0800
     39 H39       -11.9887   -2.0073   60.3227 H       1  ZINC000654672208    0.0800
     40 H40       -12.2071   -3.1066   58.9400 H       1  ZINC000654672208    0.0800
     41 H41        -9.9128   -3.0524   60.3848 H       1  ZINC000654672208    0.1000
     42 H42        -9.4379   -3.6376   58.7715 H       1  ZINC000654672208    0.1000
     43 H43        -7.5509   -2.5626   60.3020 H       1  ZINC000654672208    0.1400
     44 H44        -7.6476   -1.9998   58.5988 H       1  ZINC000654672208    0.1400
     45 H45       -10.0119    0.2669   58.2113 H       1  ZINC000654672208    0.1400
     46 H46       -11.0105    0.1285   59.6890 H       1  ZINC000654672208    0.1400
     47 H47       -10.6294   -2.9796   56.9653 H       1  ZINC000654672208    0.0800
     48 H48        -9.4830   -1.6181   56.8659 H       1  ZINC000654672208    0.0800
     49 H49        -9.7578    3.4377   52.3537 H       1  ZINC000654672208    0.0800
     50 H50        -9.9681    3.3469   50.5886 H       1  ZINC000654672208    0.0700
     51 H51       -10.6655    2.0863   51.6339 H       1  ZINC000654672208    0.0700
     52 H52        -7.5542    3.3912   50.1207 H       1  ZINC000654672208    0.1300
@<TRIPOS>BOND
     1     1     2    1
     2     1    26    1
     3     1    27    1
     4     1    28    1
     5     2    25   ar
     6     2     3   ar
     7     3     4   ar
     8     3    29    1
     9     4     5   ar
    10     5     6    1
    11     5    23   ar
    12     6     7    1
    13     6    30    1
    14     6    31    1
    15     7     8    1
    16     7    32    1
    17     7    33    1
    18     8     9   am
    19     8    34    1
    20     9    10    2
    21     9    11   am
    22    11    22    1
    23    11    12    1
    24    12    13    1
    25    12    35    1
    26    12    36    1
    27    13    14    1
    28    13    37    1
    29    13    38    1
    30    14    15    1
    31    14    39    1
    32    14    40    1
    33    15    21    1
    34    15    16    1
    35    15    22    1
    36    16    17    1
    37    16    41    1
    38    16    42    1
    39    17    18    1
    40    17    43    1
    41    17    44    1
    42    18    19    2
    43    18    20    2
    44    18    21    1
    45    21    45    1
    46    21    46    1
    47    22    47    1
    48    22    48    1
    49    23    24    1
    50    23    25   ar
    51    24    49    1
    52    24    50    1
    53    24    51    1
    54    25    52    1
@<TRIPOS>SUBSTRUCTURE
     1 ZINC000654672208        1 TEMP              0 ****  ****    0 ROOT


##########                                Name:    ZINC000011157684
##########                DOCK_Rotatable_Bonds:                   7
##########                         Heavy_Atoms:                  25
##########                    Molecular_Weight:             374.866
##########                DOCK_Rotatable_Bonds:                   7
##########                       Formal_Charge:           0.0400001
##########                     HBond_Acceptors:                   6
##########                        HBond_Donors:                   2
##########                         Heavy_Atoms:                  25
##########                          Grid_Score:          -30.780687
##########                     Grid_vdw_energy:          -29.873278
##########                      Grid_es_energy:           -0.907410
##########           Internal_energy_repulsive:            7.982453

@<TRIPOS>MOLECULE
ZINC000011157684
 41 43 1 0 0
SMALL
USER_CHARGES


@<TRIPOS>ATOM
      1 O1         -5.7189    1.8575   49.2464 O.2     1  ZINC000011157684   -0.5200
      2 C2         -5.1404    2.0359   50.2973 C.2     1  ZINC000011157684    0.5100
      3 C3         -3.6712    2.3714   50.3012 C.3     1  ZINC000011157684    0.1000
      4 N4         -2.8962    1.1750   49.9631 N.pl3   1  ZINC000011157684   -0.7300
      5 C5         -1.5444    1.2906   49.6217 C.ar    1  ZINC000011157684    0.2200
      6 C6         -0.7762    2.3130   50.1612 C.ar    1  ZINC000011157684   -0.1600
      7 C7          0.5588    2.4251   49.8233 C.ar    1  ZINC000011157684   -0.0900
      8 C8          1.1308    1.5192   48.9467 C.ar    1  ZINC000011157684    0.0500
      9 F9          2.4363    1.6314   48.6174 F       1  ZINC000011157684   -0.1400
     10 C10         0.3671    0.4977   48.4070 C.ar    1  ZINC000011157684   -0.0900
     11 C11        -0.9672    0.3783   48.7462 C.ar    1  ZINC000011157684   -0.0900
     12 Cl12       -1.9245   -0.9021   48.0696 Cl      1  ZINC000011157684   -0.0500
     13 N13        -5.8127    1.9396   51.4615 N.am    1  ZINC000011157684   -0.7200
     14 C14        -7.2409    1.6135   51.4577 C.3     1  ZINC000011157684    0.2600
     15 H15        -7.4417    0.8695   50.6868 H       1  ZINC000011157684    0.1200
     16 C16        -8.0400    2.8593   51.1741 C.2     1  ZINC000011157684   -0.1900
     17 C17        -8.3913    3.2878   49.9608 C.2     1  ZINC000011157684   -0.1200
     18 C18        -9.1267    4.4605   49.9468 C.2     1  ZINC000011157684   -0.1300
     19 C19        -9.3725    4.9843   51.1487 C.2     1  ZINC000011157684   -0.2100
     20 S20        -8.6584    3.9664   52.3928 S.3     1  ZINC000011157684    0.1100
     21 C21        -7.6334    1.0605   52.8036 C.ar    1  ZINC000011157684   -0.0900
     22 C22        -7.1022    1.6069   53.9569 C.ar    1  ZINC000011157684   -0.1100
     23 C23        -7.4623    1.0997   55.1914 C.ar    1  ZINC000011157684   -0.1100
     24 C24        -8.3538    0.0464   55.2726 C.ar    1  ZINC000011157684   -0.1100
     25 C25        -8.8857   -0.4994   54.1193 C.ar    1  ZINC000011157684   -0.1100
     26 C26        -8.5290    0.0106   52.8850 C.ar    1  ZINC000011157684   -0.1000
     27 H27        -3.4747    3.1515   49.5656 H       1  ZINC000011157684    0.1000
     28 H28        -3.3816    2.7241   51.2910 H       1  ZINC000011157684    0.1000
     29 H29        -3.3204    0.3028   49.9759 H       1  ZINC000011157684    0.4200
     30 H30        -1.2218    3.0206   50.8447 H       1  ZINC000011157684    0.1400
     31 H31         1.1566    3.2205   50.2431 H       1  ZINC000011157684    0.1400
     32 H32         0.8154   -0.2083   47.7235 H       1  ZINC000011157684    0.1500
     33 H33        -5.3508    2.0862   52.3018 H       1  ZINC000011157684    0.4000
     34 H34        -8.1221    2.7601   49.0578 H       1  ZINC000011157684    0.1400
     35 H35        -9.4747    4.9170   49.0319 H       1  ZINC000011157684    0.1400
     36 H36        -9.9282    5.8924   51.3303 H       1  ZINC000011157684    0.1700
     37 H37        -6.4056    2.4298   53.8935 H       1  ZINC000011157684    0.1200
     38 H38        -7.0467    1.5262   56.0925 H       1  ZINC000011157684    0.1300
     39 H39        -8.6346   -0.3503   56.2372 H       1  ZINC000011157684    0.1300
     40 H40        -9.5820   -1.3225   54.1827 H       1  ZINC000011157684    0.1300
     41 H41        -8.9445   -0.4158   51.9840 H       1  ZINC000011157684    0.1300
@<TRIPOS>BOND
     1     1     2    2
     2     2     3    1
     3     2    13   am
     4     3     4    1
     5     3    27    1
     6     3    28    1
     7     4     5    1
     8     4    29    1
     9     5    11   ar
    10     5     6   ar
    11     6     7   ar
    12     6    30    1
    13     7     8   ar
    14     7    31    1
    15     8     9    1
    16     8    10   ar
    17    10    11   ar
    18    10    32    1
    19    11    12    1
    20    13    14    1
    21    13    33    1
    22    14    15    1
    23    14    16    1
    24    14    21    1
    25    16    20    1
    26    16    17    2
    27    17    18    1
    28    17    34    1
    29    18    19    2
    30    18    35    1
    31    19    20    1
    32    19    36    1
    33    21    26   ar
    34    21    22   ar
    35    22    23   ar
    36    22    37    1
    37    23    24   ar
    38    23    38    1
    39    24    25   ar
    40    24    39    1
    41    25    26   ar
    42    25    40    1
    43    26    41    1
@<TRIPOS>SUBSTRUCTURE
     1 ZINC000011157684        1 TEMP              0 ****  ****    0 ROOT


##########                                Name:    ZINC000504860563
##########                DOCK_Rotatable_Bonds:                   6
##########                         Heavy_Atoms:                  25
##########                    Molecular_Weight:             370.786
##########                DOCK_Rotatable_Bonds:                   6
##########                       Formal_Charge:                0.01
##########                     HBond_Acceptors:                   9
##########                        HBond_Donors:                   0
##########                         Heavy_Atoms:                  25
##########                          Grid_Score:          -30.772945
##########                     Grid_vdw_energy:          -30.185778
##########                      Grid_es_energy:           -0.587169
##########           Internal_energy_repulsive:           13.107471

@<TRIPOS>MOLECULE
ZINC000504860563
 42 44 1 0 0
SMALL
USER_CHARGES


@<TRIPOS>ATOM
      1 O1         -9.4991    3.1695   52.2943 O.2     1  ZINC000504860563   -0.5100
      2 C2         -8.9266    2.1134   52.1088 C.2     1  ZINC000504860563    0.5700
      3 C3         -9.2999    0.9213   52.8994 C.ar    1  ZINC000504860563    0.0500
      4 N4        -10.0514   -0.0261   52.3498 N.ar    1  ZINC000504860563   -0.4100
      5 C5        -10.4048   -1.1011   53.0177 C.ar    1  ZINC000504860563    0.0600
      6 C6        -10.0048   -1.2910   54.3324 C.ar    1  ZINC000504860563   -0.1000
      7 C7         -9.2210   -0.3327   54.9499 C.ar    1  ZINC000504860563   -0.1700
      8 C8         -8.8545    0.7957   54.2199 C.ar    1  ZINC000504860563    0.1400
      9 O9         -8.0866    1.7617   54.7831 O.3     1  ZINC000504860563   -0.2600
     10 C10        -7.7005    1.5713   56.1457 C.3     1  ZINC000504860563   -0.0100
     11 C11        -6.8369    2.7495   56.6006 C.3     1  ZINC000504860563    0.2800
     12 F12        -7.5689    3.9362   56.4848 F       1  ZINC000504860563   -0.1900
     13 F13        -6.4590    2.5631   57.9347 F       1  ZINC000504860563   -0.1900
     14 N14        -7.9552    2.0278   51.1783 N.am    1  ZINC000504860563   -0.6000
     15 C15        -7.5690    3.2052   50.3888 C.3     1  ZINC000504860563    0.0800
     16 C16        -6.0557    3.4076   50.5135 C.3     1  ZINC000504860563   -0.1500
     17 C17        -5.3376    2.1176   50.1107 C.3     1  ZINC000504860563    0.1600
     18 N18        -3.8890    2.3179   50.1970 N.pl3   1  ZINC000504860563   -0.3600
     19 C19        -2.9488    1.6191   49.5252 C.2     1  ZINC000504860563    0.0700
     20 C20        -1.7382    2.1098   49.8802 C.2     1  ZINC000504860563   -0.1900
     21 Cl21       -0.2000    1.5552   49.2970 Cl      1  ZINC000504860563   -0.0400
     22 C22        -1.9459    3.1437   50.8001 C.2     1  ZINC000504860563    0.0600
     23 N23        -3.2346    3.2724   50.9865 N.2     1  ZINC000504860563   -0.2800
     24 C24        -5.7527    0.9851   51.0527 C.3     1  ZINC000504860563   -0.1400
     25 C25        -7.2584    0.7568   50.9384 C.3     1  ZINC000504860563    0.1200
     26 H26       -11.0170   -1.8488   52.5355 H       1  ZINC000504860563    0.1700
     27 H27       -10.3030   -2.1792   54.8695 H       1  ZINC000504860563    0.1500
     28 H28        -8.8974   -0.4585   55.9726 H       1  ZINC000504860563    0.1500
     29 H29        -8.5915    1.5112   56.7709 H       1  ZINC000504860563    0.1000
     30 H30        -7.1303    0.6467   56.2360 H       1  ZINC000504860563    0.1000
     31 H31        -5.9460    2.8097   55.9756 H       1  ZINC000504860563    0.1300
     32 H32        -7.8315    3.0460   49.3430 H       1  ZINC000504860563    0.0700
     33 H33        -8.0879    4.0856   50.7679 H       1  ZINC000504860563    0.1600
     34 H34        -5.7418    4.2190   49.8567 H       1  ZINC000504860563    0.0900
     35 H35        -5.8056    3.6563   51.5449 H       1  ZINC000504860563    0.0700
     36 H36        -5.6077    1.8559   49.0876 H       1  ZINC000504860563    0.1100
     37 H37        -3.1302    0.8128   48.8299 H       1  ZINC000504860563    0.1800
     38 H38        -1.1755    3.7355   51.2721 H       1  ZINC000504860563    0.1900
     39 H39        -5.2232    0.0724   50.7798 H       1  ZINC000504860563    0.0900
     40 H40        -5.5056    1.2567   52.0790 H       1  ZINC000504860563    0.0800
     41 H41        -7.5735    0.0206   51.6778 H       1  ZINC000504860563    0.1000
     42 H42        -7.4987    0.3983   49.9374 H       1  ZINC000504860563    0.0800
@<TRIPOS>BOND
     1     1     2    2
     2     2     3    1
     3     2    14   am
     4     3     8   ar
     5     3     4   ar
     6     4     5   ar
     7     5     6   ar
     8     5    26    1
     9     6     7   ar
    10     6    27    1
    11     7     8   ar
    12     7    28    1
    13     8     9    1
    14     9    10    1
    15    10    11    1
    16    10    29    1
    17    10    30    1
    18    11    12    1
    19    11    13    1
    20    11    31    1
    21    14    25    1
    22    14    15    1
    23    15    16    1
    24    15    32    1
    25    15    33    1
    26    16    17    1
    27    16    34    1
    28    16    35    1
    29    17    18    1
    30    17    24    1
    31    17    36    1
    32    18    23    1
    33    18    19    1
    34    19    20    2
    35    19    37    1
    36    20    21    1
    37    20    22    1
    38    22    23    2
    39    22    38    1
    40    24    25    1
    41    24    39    1
    42    24    40    1
    43    25    41    1
    44    25    42    1
@<TRIPOS>SUBSTRUCTURE
     1 ZINC000504860563        1 TEMP              0 ****  ****    0 ROOT


##########                                Name:    ZINC000012979878
##########                DOCK_Rotatable_Bonds:                   7
##########                         Heavy_Atoms:                  26
##########                    Molecular_Weight:             388.874
##########                DOCK_Rotatable_Bonds:                   7
##########                       Formal_Charge:          -0.0100003
##########                     HBond_Acceptors:                   7
##########                        HBond_Donors:                   1
##########                         Heavy_Atoms:                  26
##########                          Grid_Score:          -30.765720
##########                     Grid_vdw_energy:          -30.298903
##########                      Grid_es_energy:           -0.466818
##########           Internal_energy_repulsive:           12.429966

@<TRIPOS>MOLECULE
ZINC000012979878
 43 45 1 0 0
SMALL
USER_CHARGES


@<TRIPOS>ATOM
      1 C1        -10.3107   -2.4882   60.4455 C.3     1  <0>         0.0300
      2 O2        -10.2287   -1.2345   61.1264 O.3     1  <0>        -0.3100
      3 C3         -9.6839   -0.1949   60.4414 C.ar    1  <0>         0.1500
      4 C4         -9.5320    1.0391   61.0577 C.ar    1  <0>        -0.2200
      5 C5         -8.9785    2.0976   60.3623 C.ar    1  <0>        -0.0600
      6 C6         -8.5744    1.9307   59.0522 C.ar    1  <0>        -0.1800
      7 C7         -8.7240    0.6973   58.4299 C.ar    1  <0>         0.1800
      8 N8         -8.3149    0.5282   57.1034 N.am    1  <0>        -0.6700
      9 C9         -9.2329    0.3544   56.1320 C.2     1  <0>         0.6000
     10 O10       -10.4178    0.3446   56.4094 O.2     1  <0>        -0.4900
     11 C11        -8.8039    0.1771   54.7410 C.2     1  <0>        -0.3000
     12 C12        -9.4004   -0.6147   53.8146 C.2     1  <0>         0.1600
     13 C13       -10.6248   -1.4419   54.1108 C.3     1  <0>        -0.0900
     14 N14        -8.8206   -0.5973   52.6407 N.2     1  <0>        -0.4500
     15 C15        -7.7745    0.1527   52.5048 C.2     1  <0>         0.0600
     16 C16        -6.9800    0.2984   51.2326 C.3     1  <0>         0.1300
     17 O17        -6.8416    1.6845   50.9135 O.3     1  <0>        -0.3000
     18 C18        -5.6047    2.2298   51.0553 C.ar    1  <0>         0.1300
     19 C19        -5.3316    3.0615   52.1315 C.ar    1  <0>        -0.2000
     20 C20        -4.0739    3.6149   52.2739 C.ar    1  <0>        -0.0700
     21 C21        -3.0870    3.3404   51.3437 C.ar    1  <0>        -0.0700
     22 Cl22       -1.5073    4.0373   51.5245 Cl      1  <0>        -0.0700
     23 C23        -3.3574    2.5107   50.2700 C.ar    1  <0>        -0.0700
     24 C24        -4.6122    1.9508   50.1272 C.ar    1  <0>        -0.1300
     25 S25        -7.4260    0.9601   53.9708 S.3     1  <0>         0.2000
     26 C26        -9.2744   -0.3680   59.1285 C.ar    1  <0>        -0.1500
     27 H27       -10.9212   -2.3758   59.5495 H       1  <0>         0.0600
     28 H28        -9.3096   -2.8153   60.1646 H       1  <0>         0.0600
     29 H29       -10.7639   -3.2300   61.1033 H       1  <0>         0.1000
     30 H30        -9.8471    1.1727   62.0821 H       1  <0>         0.1300
     31 H31        -8.8621    3.0571   60.8441 H       1  <0>         0.1300
     32 H32        -8.1422    2.7594   58.5110 H       1  <0>         0.1300
     33 H33        -7.3705    0.5360   56.8824 H       1  <0>         0.4100
     34 H34       -11.5191   -0.8565   53.8971 H       1  <0>         0.0900
     35 H35       -10.6185   -2.3363   53.4877 H       1  <0>         0.0800
     36 H36       -10.6223   -1.7312   55.1616 H       1  <0>         0.1000
     37 H37        -5.9929   -0.1435   51.3681 H       1  <0>         0.0900
     38 H38        -7.4980   -0.2115   50.4203 H       1  <0>         0.1000
     39 H39        -6.1019    3.2766   52.8572 H       1  <0>         0.1400
     40 H40        -3.8609    4.2624   53.1115 H       1  <0>         0.1400
     41 H41        -2.5856    2.2973   49.5451 H       1  <0>         0.1400
     42 H42        -4.8228    1.3033   49.2889 H       1  <0>         0.1400
     43 H43        -9.3914   -1.3278   58.6474 H       1  <0>         0.1400
@<TRIPOS>BOND
     1     1     2    1
     2     1    27    1
     3     1    28    1
     4     1    29    1
     5     2     3    1
     6     3    26   ar
     7     3     4   ar
     8     4     5   ar
     9     4    30    1
    10     5     6   ar
    11     5    31    1
    12     6     7   ar
    13     6    32    1
    14     7     8    1
    15     7    26   ar
    16     8     9   am
    17     8    33    1
    18     9    10    2
    19     9    11    1
    20    11    25    1
    21    11    12    2
    22    12    13    1
    23    12    14    1
    24    13    34    1
    25    13    35    1
    26    13    36    1
    27    14    15    2
    28    15    16    1
    29    15    25    1
    30    16    17    1
    31    16    37    1
    32    16    38    1
    33    17    18    1
    34    18    24   ar
    35    18    19   ar
    36    19    20   ar
    37    19    39    1
    38    20    21   ar
    39    20    40    1
    40    21    22    1
    41    21    23   ar
    42    23    24   ar
    43    23    41    1
    44    24    42    1
    45    26    43    1
@<TRIPOS>SUBSTRUCTURE
     1 <0>         1 TEMP              0 ****  ****    0 ROOT


##########                                Name:    ZINC000420486261
##########                DOCK_Rotatable_Bonds:                   7
##########                         Heavy_Atoms:                  26
##########                    Molecular_Weight:             353.378
##########                DOCK_Rotatable_Bonds:                   7
##########                       Formal_Charge:        -2.98023e-08
##########                     HBond_Acceptors:                   7
##########                        HBond_Donors:                   0
##########                         Heavy_Atoms:                  26
##########                          Grid_Score:          -30.745552
##########                     Grid_vdw_energy:          -31.134430
##########                      Grid_es_energy:            0.388879
##########           Internal_energy_repulsive:           10.117521

@<TRIPOS>MOLECULE
ZINC000420486261
 45 47 1 0 0
SMALL
USER_CHARGES


@<TRIPOS>ATOM
      1 C1         -8.4129    0.2357   64.4087 C.3     1  ZINC000420486261    0.0400
      2 O2         -8.5624   -0.4247   63.1242 O.3     1  ZINC000420486261   -0.3500
      3 C3         -8.5500    0.3588   62.0289 C.2     1  ZINC000420486261    0.5100
      4 O4         -8.3477    1.5511   62.1376 O.2     1  ZINC000420486261   -0.4900
      5 C5         -8.7831   -0.2338   60.6924 C.ar    1  ZINC000420486261   -0.0700
      6 C6         -9.3802   -1.4917   60.5588 C.ar    1  ZINC000420486261   -0.0900
      7 C7         -9.5821   -2.0125   59.2925 C.ar    1  ZINC000420486261    0.1100
      8 N8         -9.2215   -1.3440   58.2186 N.ar    1  ZINC000420486261   -0.4200
      9 C9         -8.6518   -0.1476   58.2943 C.ar    1  ZINC000420486261    0.1900
     10 C10        -8.2666    0.5601   57.0529 C.2     1  ZINC000420486261    0.2200
     11 N11        -8.0915    0.0196   55.8629 N.2     1  ZINC000420486261   -0.4300
     12 C12        -7.7510    1.0410   55.0489 C.2     1  ZINC000420486261    0.2200
     13 C13        -7.4488    0.9464   53.5998 C.ar    1  ZINC000420486261   -0.0600
     14 C14        -6.4843    1.7746   53.0308 C.ar    1  ZINC000420486261   -0.0300
     15 C15        -6.2067    1.6828   51.6820 C.ar    1  ZINC000420486261   -0.1600
     16 C16        -6.8833    0.7705   50.8916 C.ar    1  ZINC000420486261   -0.0600
     17 C17        -7.8422   -0.0560   51.4456 C.ar    1  ZINC000420486261   -0.2200
     18 C18        -8.1270    0.0214   52.7998 C.ar    1  ZINC000420486261    0.1700
     19 O19        -9.0690   -0.7903   53.3455 O.3     1  ZINC000420486261   -0.2900
     20 C20       -10.4064   -0.6482   52.8626 C.3     1  ZINC000420486261    0.0600
     21 C21       -11.0763    0.5387   53.5580 C.3     1  ZINC000420486261   -0.0900
     22 C22       -10.9688    1.7783   52.6678 C.3     1  ZINC000420486261   -0.1500
     23 C23       -12.5510    0.2170   53.8085 C.3     1  ZINC000420486261   -0.1500
     24 N24        -7.7372    2.1303   55.7744 N.2     1  ZINC000420486261   -0.3400
     25 O25        -8.0345    1.8752   56.9222 O.3     1  ZINC000420486261    0.1000
     26 C26        -8.4178    0.4512   59.5305 C.ar    1  ZINC000420486261   -0.0700
     27 H27        -8.4400   -0.5081   65.2051 H       1  ZINC000420486261    0.1100
     28 H28        -7.4597    0.7637   64.4371 H       1  ZINC000420486261    0.0700
     29 H29        -9.2267    0.9472   64.5484 H       1  ZINC000420486261    0.0700
     30 H30        -9.6798   -2.0501   61.4334 H       1  ZINC000420486261    0.1600
     31 H31       -10.0427   -2.9834   59.1844 H       1  ZINC000420486261    0.1800
     32 H32        -5.9544    2.4881   53.6444 H       1  ZINC000420486261    0.1400
     33 H33        -5.4589    2.3257   51.2416 H       1  ZINC000420486261    0.1300
     34 H34        -6.6613    0.7044   49.8368 H       1  ZINC000420486261    0.1300
     35 H35        -8.3670   -0.7661   50.8237 H       1  ZINC000420486261    0.1400
     36 H36       -10.3878   -0.4757   51.7866 H       1  ZINC000420486261    0.0600
     37 H37       -10.9679   -1.5580   53.0751 H       1  ZINC000420486261    0.0600
     38 H38       -10.5795    0.7301   54.5092 H       1  ZINC000420486261    0.0800
     39 H39       -11.4655    1.5868   51.7167 H       1  ZINC000420486261    0.0600
     40 H40       -11.4459    2.6239   53.1631 H       1  ZINC000420486261    0.0700
     41 H41        -9.9181    2.0075   52.4893 H       1  ZINC000420486261    0.0600
     42 H42       -13.0477    0.0255   52.8574 H       1  ZINC000420486261    0.0500
     43 H43       -12.6276   -0.6662   54.4427 H       1  ZINC000420486261    0.0600
     44 H44       -13.0283    1.0626   54.3039 H       1  ZINC000420486261    0.0600
     45 H45        -7.9544    1.4249   59.5900 H       1  ZINC000420486261    0.1600
@<TRIPOS>BOND
     1     1     2    1
     2     1    27    1
     3     1    28    1
     4     1    29    1
     5     2     3    1
     6     3     4    2
     7     3     5    1
     8     5    26   ar
     9     5     6   ar
    10     6     7   ar
    11     6    30    1
    12     7     8   ar
    13     7    31    1
    14     8     9   ar
    15     9    10    1
    16     9    26   ar
    17    10    25    1
    18    10    11    2
    19    11    12    1
    20    12    13    1
    21    12    24    2
    22    13    18   ar
    23    13    14   ar
    24    14    15   ar
    25    14    32    1
    26    15    16   ar
    27    15    33    1
    28    16    17   ar
    29    16    34    1
    30    17    18   ar
    31    17    35    1
    32    18    19    1
    33    19    20    1
    34    20    21    1
    35    20    36    1
    36    20    37    1
    37    21    22    1
    38    21    23    1
    39    21    38    1
    40    22    39    1
    41    22    40    1
    42    22    41    1
    43    23    42    1
    44    23    43    1
    45    23    44    1
    46    24    25    1
    47    26    45    1
@<TRIPOS>SUBSTRUCTURE
     1 ZINC000420486261        1 TEMP              0 ****  ****    0 ROOT


##########                                Name:    ZINC000089894387
##########                DOCK_Rotatable_Bonds:                   8
##########                         Heavy_Atoms:                  22
##########                    Molecular_Weight:             326.823
##########                DOCK_Rotatable_Bonds:                   8
##########                       Formal_Charge:          -0.0300003
##########                     HBond_Acceptors:                   6
##########                        HBond_Donors:                   2
##########                         Heavy_Atoms:                  22
##########                          Grid_Score:          -30.745428
##########                     Grid_vdw_energy:          -30.812801
##########                      Grid_es_energy:            0.067374
##########           Internal_energy_repulsive:           12.494954

@<TRIPOS>MOLECULE
ZINC000089894387
 45 46 1 0 0
SMALL
USER_CHARGES


@<TRIPOS>ATOM
      1 C1        -10.6485   -0.6949   52.8733 C.3     1  ZINC000089894387   -0.1700
      2 C2         -9.3211   -0.2560   53.4949 C.3     1  ZINC000089894387    0.1700
      3 H3         -8.5988   -1.0690   53.4208 H       1  ZINC000089894387    0.0900
      4 N4         -8.8113    0.9169   52.7804 N.am    1  ZINC000089894387   -0.7400
      5 C5         -8.0233    0.7571   51.6987 C.2     1  ZINC000089894387    0.7100
      6 O6         -7.7342   -0.3605   51.3169 O.2     1  ZINC000089894387   -0.5900
      7 N7         -7.5556    1.8361   51.0403 N.am    1  ZINC000089894387   -0.7500
      8 C8         -6.7005    1.6624   49.8636 C.3     1  ZINC000089894387    0.1400
      9 C9         -5.2421    1.9145   50.2513 C.3     1  ZINC000089894387    0.0500
     10 O10        -4.4053    1.7218   49.1090 O.3     1  ZINC000089894387   -0.3100
     11 C11        -3.0654    1.6646   49.3284 C.ar    1  ZINC000089894387    0.1400
     12 C12        -2.2870    0.7468   48.6383 C.ar    1  ZINC000089894387   -0.2100
     13 C13        -0.9249    0.6900   48.8626 C.ar    1  ZINC000089894387   -0.0700
     14 C14        -0.3367    1.5469   49.7740 C.ar    1  ZINC000089894387   -0.1500
     15 C15        -1.1107    2.4635   50.4645 C.ar    1  ZINC000089894387    0.0000
     16 Cl16       -0.3691    3.5382   51.6084 Cl      1  ZINC000089894387   -0.0600
     17 C17        -2.4731    2.5279   50.2386 C.ar    1  ZINC000089894387   -0.1500
     18 C18        -9.5400    0.0990   54.9670 C.3     1  ZINC000089894387   -0.1000
     19 C19        -9.9892   -1.1486   55.7337 C.3     1  ZINC000089894387   -0.1600
     20 C20       -10.1294   -0.8027   57.2184 C.3     1  ZINC000089894387    0.0600
     21 O21        -8.8838   -0.3034   57.7097 O.3     1  ZINC000089894387   -0.3800
     22 C22        -8.4371    0.8895   57.0619 C.3     1  ZINC000089894387    0.0600
     23 C23        -8.2288    0.6115   55.5709 C.3     1  ZINC000089894387   -0.1500
     24 H24       -11.3708    0.1181   52.9475 H       1  ZINC000089894387    0.0600
     25 H25       -10.4925   -0.9478   51.8246 H       1  ZINC000089894387    0.0600
     26 H26       -11.0278   -1.5675   53.4050 H       1  ZINC000089894387    0.0700
     27 H27        -9.0410    1.8085   53.0857 H       1  ZINC000089894387    0.3900
     28 H28        -7.7853    2.7277   51.3457 H       1  ZINC000089894387    0.4000
     29 H29        -6.8053    0.6456   49.4852 H       1  ZINC000089894387    0.0800
     30 H30        -6.9984    2.3705   49.0903 H       1  ZINC000089894387    0.0900
     31 H31        -5.1337    2.9372   50.6127 H       1  ZINC000089894387    0.0900
     32 H32        -4.9495    1.2184   51.0375 H       1  ZINC000089894387    0.0700
     33 H33        -2.7457    0.0767   47.9263 H       1  ZINC000089894387    0.1300
     34 H34        -0.3191   -0.0247   48.3257 H       1  ZINC000089894387    0.1400
     35 H35         0.7281    1.5009   49.9479 H       1  ZINC000089894387    0.1400
     36 H36        -3.0769    3.2433   50.7770 H       1  ZINC000089894387    0.1400
     37 H37       -10.3044    0.8720   55.0458 H       1  ZINC000089894387    0.0800
     38 H38       -10.9498   -1.4880   55.3464 H       1  ZINC000089894387    0.0700
     39 H39        -9.2470   -1.9377   55.6121 H       1  ZINC000089894387    0.0800
     40 H40       -10.9004   -0.0424   57.3433 H       1  ZINC000089894387    0.0500
     41 H41       -10.4075   -1.6974   57.7755 H       1  ZINC000089894387    0.0900
     42 H42        -9.1860    1.6720   57.1847 H       1  ZINC000089894387    0.0500
     43 H43        -7.4962    1.2138   57.5062 H       1  ZINC000089894387    0.1000
     44 H44        -7.4512   -0.1420   55.4460 H       1  ZINC000089894387    0.0800
     45 H45        -7.9306    1.5310   55.0671 H       1  ZINC000089894387    0.0800
@<TRIPOS>BOND
     1     1     2    1
     2     1    24    1
     3     1    25    1
     4     1    26    1
     5     2     3    1
     6     2     4    1
     7     2    18    1
     8     4     5   am
     9     4    27    1
    10     5     6    2
    11     5     7   am
    12     7     8    1
    13     7    28    1
    14     8     9    1
    15     8    29    1
    16     8    30    1
    17     9    10    1
    18     9    31    1
    19     9    32    1
    20    10    11    1
    21    11    17   ar
    22    11    12   ar
    23    12    13   ar
    24    12    33    1
    25    13    14   ar
    26    13    34    1
    27    14    15   ar
    28    14    35    1
    29    15    16    1
    30    15    17   ar
    31    17    36    1
    32    18    23    1
    33    18    19    1
    34    18    37    1
    35    19    20    1
    36    19    38    1
    37    19    39    1
    38    20    21    1
    39    20    40    1
    40    20    41    1
    41    21    22    1
    42    22    23    1
    43    22    42    1
    44    22    43    1
    45    23    44    1
    46    23    45    1
@<TRIPOS>SUBSTRUCTURE
     1 ZINC000089894387        1 TEMP              0 ****  ****    0 ROOT


##########                                Name:    ZINC001053792610
##########                DOCK_Rotatable_Bonds:                   5
##########                         Heavy_Atoms:                  25
##########                    Molecular_Weight:             347.374
##########                DOCK_Rotatable_Bonds:                   5
##########                       Formal_Charge:          -0.0400001
##########                     HBond_Acceptors:                   9
##########                        HBond_Donors:                   2
##########                         Heavy_Atoms:                  25
##########                          Grid_Score:          -30.742086
##########                     Grid_vdw_energy:          -29.682413
##########                      Grid_es_energy:           -1.059674
##########           Internal_energy_repulsive:            5.251051

@<TRIPOS>MOLECULE
ZINC001053792610
 46 49 1 0 0
SMALL
USER_CHARGES


@<TRIPOS>ATOM
      1 C1         -5.6136    1.8660   50.5152 C.3     1  ZINC001053792610   -0.1000
      2 C2         -6.8939    1.4039   51.1622 C.ar    1  ZINC001053792610    0.0800
      3 C3         -7.3371    0.1075   50.9704 C.ar    1  ZINC001053792610    0.0600
      4 N4         -8.4598   -0.2977   51.5377 N.ar    1  ZINC001053792610   -0.4200
      5 C5         -9.1590    0.5353   52.2880 C.ar    1  ZINC001053792610    0.0800
      6 C6        -10.4390    0.0732   52.9353 C.3     1  ZINC001053792610    0.0700
      7 N7        -10.1435   -1.0008   53.8930 N.3     1  ZINC001053792610   -0.4500
      8 C8        -11.3335   -1.3305   54.7019 C.3     1  ZINC001053792610   -0.0100
      9 C9        -10.4103   -1.4156   55.9156 C.3     1  ZINC001053792610    0.0800
     10 C10        -9.5237   -0.4605   55.1191 C.3     1  ZINC001053792610   -0.0100
     11 C11       -10.9876   -0.8404   57.2185 C.3     1  ZINC001053792610   -0.1500
     12 C12       -11.1845   -2.1215   58.0772 C.3     1  ZINC001053792610    0.1100
     13 H13       -11.1034   -1.8975   59.1409 H       1  ZINC001053792610    0.1200
     14 N14       -12.4634   -2.7686   57.7737 N.am    1  ZINC001053792610   -0.7100
     15 C15       -13.5318   -2.5550   58.5670 C.2     1  ZINC001053792610    0.5000
     16 O16       -13.4349   -1.8259   59.5314 O.2     1  ZINC001053792610   -0.5100
     17 C17       -14.8467   -3.2221   58.2558 C.3     1  ZINC001053792610    0.0800
     18 H18       -14.6847   -4.1422   57.6943 H       1  ZINC001053792610    0.1300
     19 C19       -15.6279   -3.5099   59.5526 C.3     1  ZINC001053792610    0.0500
     20 O20       -16.8533   -2.7356   59.4053 O.3     1  ZINC001053792610   -0.3200
     21 C21       -16.8342   -2.0886   58.2346 C.2     1  ZINC001053792610    0.6500
     22 O22       -17.7379   -1.3676   57.8606 O.2     1  ZINC001053792610   -0.5100
     23 N23       -15.7254   -2.3090   57.5091 N.am    1  ZINC001053792610   -0.7100
     24 C24        -9.9919   -2.9874   57.5966 C.3     1  ZINC001053792610    0.0400
     25 O25        -9.8579   -2.6985   56.1933 O.3     1  ZINC001053792610   -0.3300
     26 C26        -8.7157    1.8322   52.4797 C.ar    1  ZINC001053792610    0.0600
     27 N27        -7.5904    2.2356   51.9170 N.ar    1  ZINC001053792610   -0.4400
     28 H28        -4.7766    1.6701   51.1853 H       1  ZINC001053792610    0.0800
     29 H29        -5.4640    1.3267   49.5798 H       1  ZINC001053792610    0.0800
     30 H30        -5.6742    2.9353   50.3125 H       1  ZINC001053792610    0.0800
     31 H31        -6.7657   -0.5733   50.3569 H       1  ZINC001053792610    0.1700
     32 H32       -10.9038    0.9088   53.4585 H       1  ZINC001053792610    0.1000
     33 H33       -11.1193   -0.2998   52.1698 H       1  ZINC001053792610    0.0600
     34 H34       -12.0571   -0.5176   54.7622 H       1  ZINC001053792610    0.0800
     35 H35       -11.7900   -2.2837   54.4352 H       1  ZINC001053792610    0.0900
     36 H36        -8.4599   -0.6829   55.2028 H       1  ZINC001053792610    0.1000
     37 H37        -9.7506    0.5912   55.2938 H       1  ZINC001053792610    0.0800
     38 H38       -10.2793   -0.1600   57.6912 H       1  ZINC001053792610    0.1000
     39 H39       -11.9404   -0.3436   57.0362 H       1  ZINC001053792610    0.1000
     40 H40       -12.5411   -3.3508   57.0017 H       1  ZINC001053792610    0.4000
     41 H41       -15.8550   -4.5728   59.6339 H       1  ZINC001053792610    0.1200
     42 H42       -15.0639   -3.1711   60.4216 H       1  ZINC001053792610    0.1100
     43 H43       -15.5359   -1.9263   56.6381 H       1  ZINC001053792610    0.4400
     44 H44        -9.0827   -2.7076   58.1288 H       1  ZINC001053792610    0.0800
     45 H45       -10.2081   -4.0452   57.7460 H       1  ZINC001053792610    0.0900
     46 H46        -9.2871    2.5131   53.0930 H       1  ZINC001053792610    0.1600
@<TRIPOS>BOND
     1     1     2    1
     2     1    28    1
     3     1    29    1
     4     1    30    1
     5     2    27   ar
     6     2     3   ar
     7     3     4   ar
     8     3    31    1
     9     4     5   ar
    10     5     6    1
    11     5    26   ar
    12     6     7    1
    13     6    32    1
    14     6    33    1
    15     7    10    1
    16     7     8    1
    17     8     9    1
    18     8    34    1
    19     8    35    1
    20     9    25    1
    21     9    10    1
    22     9    11    1
    23    10    36    1
    24    10    37    1
    25    11    12    1
    26    11    38    1
    27    11    39    1
    28    12    13    1
    29    12    14    1
    30    12    24    1
    31    14    15   am
    32    14    40    1
    33    15    16    2
    34    15    17    1
    35    17    18    1
    36    17    23    1
    37    17    19    1
    38    19    20    1
    39    19    41    1
    40    19    42    1
    41    20    21    1
    42    21    22    2
    43    21    23   am
    44    23    43    1
    45    24    25    1
    46    24    44    1
    47    24    45    1
    48    26    27   ar
    49    26    46    1
@<TRIPOS>SUBSTRUCTURE
     1 ZINC001053792610        1 TEMP              0 ****  ****    0 ROOT


##########                                Name:    ZINC000426607143
##########                DOCK_Rotatable_Bonds:                   3
##########                         Heavy_Atoms:                  25
##########                    Molecular_Weight:             419.302
##########                DOCK_Rotatable_Bonds:                   3
##########                       Formal_Charge:         1.49012e-07
##########                     HBond_Acceptors:                   7
##########                        HBond_Donors:                   0
##########                         Heavy_Atoms:                  25
##########                          Grid_Score:          -30.705894
##########                     Grid_vdw_energy:          -30.224203
##########                      Grid_es_energy:           -0.481692
##########           Internal_energy_repulsive:           28.971012

@<TRIPOS>MOLECULE
ZINC000426607143
 40 43 1 0 0
SMALL
USER_CHARGES


@<TRIPOS>ATOM
      1 C1        -10.6012   -2.5833   55.8778 C.3     1  ZINC000426607143   -0.0900
      2 C2        -10.3959   -2.4319   57.3631 C.2     1  ZINC000426607143    0.1600
      3 N3        -10.8962   -3.2801   58.2084 N.2     1  ZINC000426607143   -0.4600
      4 S4        -10.4511   -2.7729   59.7636 S.3     1  ZINC000426607143    0.2900
      5 C5         -9.5712   -1.3860   59.2523 C.2     1  ZINC000426607143   -0.1300
      6 C6         -8.8510   -0.3898   60.1243 C.3     1  ZINC000426607143   -0.0800
      7 C7         -9.6576   -1.3814   57.8918 C.2     1  ZINC000426607143   -0.1200
      8 C8         -9.0251   -0.3379   57.0488 C.2     1  ZINC000426607143    0.2500
      9 N9         -8.0517    0.4616   57.4021 N.2     1  ZINC000426607143   -0.3700
     10 O10        -7.7632    1.1983   56.4828 O.3     1  ZINC000426607143    0.0900
     11 C11        -8.5397    0.9384   55.4264 C.2     1  ZINC000426607143    0.2000
     12 C12        -8.4958    1.6342   54.0905 C.3     1  ZINC000426607143   -0.0300
     13 H13        -9.3019    1.2781   53.4491 H       1  ZINC000426607143    0.1600
     14 C14        -8.5882    3.1667   54.2752 C.3     1  ZINC000426607143   -0.1200
     15 C15        -7.6447    3.6755   53.1627 C.3     1  ZINC000426607143    0.1000
     16 N16        -6.6982    2.5802   52.9207 N.am    1  ZINC000426607143   -0.5800
     17 C17        -5.4784    2.7243   52.2498 C.ar    1  ZINC000426607143    0.1700
     18 C18        -4.3431    3.1149   52.9466 C.ar    1  ZINC000426607143   -0.1000
     19 C19        -3.1405    3.2563   52.2815 C.ar    1  ZINC000426607143   -0.1000
     20 C20        -3.0665    3.0100   50.9230 C.ar    1  ZINC000426607143   -0.1000
     21 C21        -4.1954    2.6207   50.2253 C.ar    1  ZINC000426607143   -0.0900
     22 C22        -5.3999    2.4714   50.8855 C.ar    1  ZINC000426607143   -0.0800
     23 Br23       -6.9431    1.9393   49.9309 Br      1  ZINC000426607143   -0.0400
     24 C24        -7.1546    1.4180   53.4248 C.2     1  ZINC000426607143    0.5300
     25 O25        -6.5731    0.3556   53.3576 O.2     1  ZINC000426607143   -0.4900
     26 N26        -9.3426   -0.0382   55.7686 N.2     1  ZINC000426607143   -0.4600
     27 H27        -9.7974   -3.1894   55.4598 H       1  ZINC000426607143    0.0900
     28 H28       -11.5582   -3.0705   55.6911 H       1  ZINC000426607143    0.0800
     29 H29       -10.5964   -1.5997   55.4082 H       1  ZINC000426607143    0.1100
     30 H30        -8.9646   -0.6738   61.1705 H       1  ZINC000426607143    0.0800
     31 H31        -7.7927   -0.3776   59.8639 H       1  ZINC000426607143    0.0900
     32 H32        -9.2750    0.6022   59.9689 H       1  ZINC000426607143    0.0900
     33 H33        -9.6071    3.5184   54.1135 H       1  ZINC000426607143    0.1100
     34 H34        -8.2261    3.4634   55.2595 H       1  ZINC000426607143    0.1000
     35 H35        -8.2115    3.8912   52.2570 H       1  ZINC000426607143    0.0900
     36 H36        -7.1132    4.5664   53.4972 H       1  ZINC000426607143    0.0900
     37 H37        -4.3999    3.3082   54.0076 H       1  ZINC000426607143    0.1400
     38 H38        -2.2571    3.5601   52.8233 H       1  ZINC000426607143    0.1400
     39 H39        -2.1252    3.1221   50.4057 H       1  ZINC000426607143    0.1400
     40 H40        -4.1343    2.4291   49.1642 H       1  ZINC000426607143    0.1400
@<TRIPOS>BOND
     1     1     2    1
     2     1    27    1
     3     1    28    1
     4     1    29    1
     5     2     7    1
     6     2     3    2
     7     3     4    1
     8     4     5    1
     9     5     6    1
    10     5     7    2
    11     6    30    1
    12     6    31    1
    13     6    32    1
    14     7     8    1
    15     8    26    1
    16     8     9    2
    17     9    10    1
    18    10    11    1
    19    11    12    1
    20    11    26    2
    21    12    13    1
    22    12    24    1
    23    12    14    1
    24    14    15    1
    25    14    33    1
    26    14    34    1
    27    15    16    1
    28    15    35    1
    29    15    36    1
    30    16    17    1
    31    16    24   am
    32    17    22   ar
    33    17    18   ar
    34    18    19   ar
    35    18    37    1
    36    19    20   ar
    37    19    38    1
    38    20    21   ar
    39    20    39    1
    40    21    22   ar
    41    21    40    1
    42    22    23    1
    43    24    25    2
@<TRIPOS>SUBSTRUCTURE
     1 ZINC000426607143        1 TEMP              0 ****  ****    0 ROOT


##########                                Name:    ZINC000945148121
##########                DOCK_Rotatable_Bonds:                   6
##########                         Heavy_Atoms:                  24
##########                    Molecular_Weight:             332.446
##########                DOCK_Rotatable_Bonds:                   6
##########                       Formal_Charge:           0.0100009
##########                     HBond_Acceptors:                   6
##########                        HBond_Donors:                   2
##########                         Heavy_Atoms:                  24
##########                          Grid_Score:          -30.697689
##########                     Grid_vdw_energy:          -30.359732
##########                      Grid_es_energy:           -0.337957
##########           Internal_energy_repulsive:           19.059320

@<TRIPOS>MOLECULE
ZINC000945148121
 52 54 1 0 0
SMALL
USER_CHARGES


@<TRIPOS>ATOM
      1 O1         -8.1627    1.9236   50.0422 O.2     1  ZINC000945148121   -0.5100
      2 C2         -7.0836    1.8141   50.5850 C.2     1  ZINC000945148121    0.5200
      3 C3         -5.8199    2.0912   49.8122 C.3     1  ZINC000945148121   -0.0500
      4 C4         -4.9151    2.9767   50.6298 C.2     1  ZINC000945148121    0.0100
      5 C5         -3.5755    2.8724   50.7191 C.2     1  ZINC000945148121   -0.0500
      6 N6         -3.1559    3.8674   51.5601 N.pl3   1  ZINC000945148121   -0.5700
      7 C7         -4.2545    4.5459   51.9557 C.2     1  ZINC000945148121    0.1800
      8 N8         -5.3025    4.0106   51.3914 N.2     1  ZINC000945148121   -0.4700
      9 N9         -7.0149    1.4500   51.8808 N.am    1  ZINC000945148121   -0.7300
     10 C10        -8.2435    1.1806   52.6320 C.3     1  ZINC000945148121    0.1500
     11 C11        -8.7761   -0.2047   52.2585 C.3     1  ZINC000945148121   -0.1400
     12 C12       -10.0790   -0.4688   53.0197 C.3     1  ZINC000945148121    0.1100
     13 N13        -9.8331   -0.2841   54.4565 N.am    1  ZINC000945148121   -0.6100
     14 C14       -10.1472   -1.2546   55.3373 C.2     1  ZINC000945148121    0.5200
     15 O15       -10.6364   -2.2932   54.9463 O.2     1  ZINC000945148121   -0.5400
     16 C16        -9.8904   -1.0493   56.8080 C.3     1  ZINC000945148121   -0.1000
     17 C17       -10.8717   -0.0499   57.3577 C.3     1  ZINC000945148121   -0.1200
     18 C18       -10.2636    0.8209   58.4737 C.3     1  ZINC000945148121   -0.1200
     19 C19        -9.3872    0.0140   59.4506 C.3     1  ZINC000945148121   -0.1200
     20 C20        -9.9961   -1.3150   59.8072 C.3     1  ZINC000945148121   -0.1200
     21 C21        -9.4231   -2.3870   58.8577 C.3     1  ZINC000945148121   -0.1200
     22 C22       -10.0782   -2.3840   57.5580 C.3     1  ZINC000945148121   -0.1000
     23 C23        -9.2377    0.9787   54.9147 C.3     1  ZINC000945148121    0.1100
     24 C24        -7.9442    1.2264   54.1322 C.3     1  ZINC000945148121   -0.1400
     25 H25        -5.3113    1.1511   49.5981 H       1  ZINC000945148121    0.1000
     26 H26        -6.0685    2.5912   48.8762 H       1  ZINC000945148121    0.1000
     27 H27        -2.9521    2.1434   50.2228 H       1  ZINC000945148121    0.1800
     28 H28        -2.2404    4.0511   51.8228 H       1  ZINC000945148121    0.4200
     29 H29        -4.2639    5.3934   52.6250 H       1  ZINC000945148121    0.2100
     30 H30        -6.1521    1.3663   52.3160 H       1  ZINC000945148121    0.4000
     31 H31        -8.9914    1.9349   52.3877 H       1  ZINC000945148121    0.0900
     32 H32        -8.9669   -0.2440   51.1861 H       1  ZINC000945148121    0.0800
     33 H33        -8.0390   -0.9620   52.5254 H       1  ZINC000945148121    0.0700
     34 H34       -10.8449    0.2319   52.6872 H       1  ZINC000945148121    0.0700
     35 H35       -10.4101   -1.4905   52.8341 H       1  ZINC000945148121    0.1000
     36 H36        -8.8730   -0.6867   56.9549 H       1  ZINC000945148121    0.1000
     37 H37       -11.2064    0.5981   56.5476 H       1  ZINC000945148121    0.0700
     38 H38       -11.7332   -0.5847   57.7577 H       1  ZINC000945148121    0.0700
     39 H39        -9.6546    1.6018   58.0180 H       1  ZINC000945148121    0.0600
     40 H40       -11.0725    1.2908   59.0332 H       1  ZINC000945148121    0.0700
     41 H41        -8.4129   -0.1561   58.9922 H       1  ZINC000945148121    0.0600
     42 H42        -9.2490    0.5947   60.3626 H       1  ZINC000945148121    0.0600
     43 H43        -9.7463   -1.5675   60.8377 H       1  ZINC000945148121    0.0600
     44 H44       -11.0788   -1.2645   59.6918 H       1  ZINC000945148121    0.0700
     45 H45        -8.3585   -2.2010   58.7167 H       1  ZINC000945148121    0.0600
     46 H46        -9.5507   -3.3681   59.3150 H       1  ZINC000945148121    0.0600
     47 H47       -11.1441   -2.5624   57.6995 H       1  ZINC000945148121    0.0700
     48 H48        -9.6646   -3.1904   56.9523 H       1  ZINC000945148121    0.0700
     49 H49        -9.9350    1.7972   54.7366 H       1  ZINC000945148121    0.0700
     50 H50        -9.0136    0.9118   55.9793 H       1  ZINC000945148121    0.1000
     51 H51        -7.2149    0.4557   54.3814 H       1  ZINC000945148121    0.0700
     52 H52        -7.5429    2.2057   54.3934 H       1  ZINC000945148121    0.0800
@<TRIPOS>BOND
     1     1     2    2
     2     2     3    1
     3     2     9   am
     4     3     4    1
     5     3    25    1
     6     3    26    1
     7     4     8    1
     8     4     5    2
     9     5     6    1
    10     5    27    1
    11     6     7    1
    12     6    28    1
    13     7     8    2
    14     7    29    1
    15     9    10    1
    16     9    30    1
    17    10    24    1
    18    10    11    1
    19    10    31    1
    20    11    12    1
    21    11    32    1
    22    11    33    1
    23    12    13    1
    24    12    34    1
    25    12    35    1
    26    13    14   am
    27    13    23    1
    28    14    15    2
    29    14    16    1
    30    16    22    1
    31    16    17    1
    32    16    36    1
    33    17    18    1
    34    17    37    1
    35    17    38    1
    36    18    19    1
    37    18    39    1
    38    18    40    1
    39    19    20    1
    40    19    41    1
    41    19    42    1
    42    20    21    1
    43    20    43    1
    44    20    44    1
    45    21    22    1
    46    21    45    1
    47    21    46    1
    48    22    47    1
    49    22    48    1
    50    23    24    1
    51    23    49    1
    52    23    50    1
    53    24    51    1
    54    24    52    1
@<TRIPOS>SUBSTRUCTURE
     1 ZINC000945148121        1 TEMP              0 ****  ****    0 ROOT


##########                                Name:    ZINC000499369364
##########                DOCK_Rotatable_Bonds:                   9
##########                         Heavy_Atoms:                  25
##########                    Molecular_Weight:             384.527
##########                DOCK_Rotatable_Bonds:                   9
##########                       Formal_Charge:        -5.88596e-07
##########                     HBond_Acceptors:                  10
##########                        HBond_Donors:                   1
##########                         Heavy_Atoms:                  25
##########                          Grid_Score:          -30.685310
##########                     Grid_vdw_energy:          -30.317736
##########                      Grid_es_energy:           -0.367574
##########           Internal_energy_repulsive:           25.924517

@<TRIPOS>MOLECULE
ZINC000499369364
 49 51 1 0 0
SMALL
USER_CHARGES


@<TRIPOS>ATOM
      1 C1        -13.5711    1.2552   54.5242 C.3     1  ZINC000499369364   -0.1500
      2 C2        -13.6026    0.2353   53.3841 C.3     1  ZINC000499369364   -0.1000
      3 C3        -14.8735    0.4352   52.5560 C.3     1  ZINC000499369364   -0.1500
      4 C4        -12.3758    0.4310   52.4910 C.3     1  ZINC000499369364    0.1500
      5 H5        -12.3981   -0.2955   51.6787 H       1  ZINC000499369364    0.0900
      6 C6        -12.3885    1.8463   51.9099 C.3     1  ZINC000499369364   -0.1700
      7 N7        -11.1590    0.2396   53.2841 N.am    1  ZINC000499369364   -0.7200
      8 C8        -10.0929   -0.3827   52.7430 C.2     1  ZINC000499369364    0.5100
      9 O9        -10.1414   -0.7855   51.6000 O.2     1  ZINC000499369364   -0.5100
     10 C10        -8.8405   -0.5779   53.5581 C.3     1  ZINC000499369364    0.1200
     11 H11        -8.3485   -1.4932   53.2291 H       1  ZINC000499369364    0.1200
     12 C12        -7.8914    0.6153   53.3042 C.3     1  ZINC000499369364   -0.0800
     13 S13        -8.2524    1.6814   54.7625 S.3     1  ZINC000499369364   -0.2400
     14 C14        -8.6047    0.2576   55.8747 C.3     1  ZINC000499369364    0.1400
     15 N15        -9.2111   -0.7230   54.9576 N.am    1  ZINC000499369364   -0.6000
     16 C16       -10.0485   -1.6893   55.3835 C.2     1  ZINC000499369364    0.5600
     17 O17       -10.5220   -2.4746   54.5897 O.2     1  ZINC000499369364   -0.5000
     18 C18       -10.3964   -1.7941   56.8460 C.3     1  ZINC000499369364   -0.1500
     19 S19       -11.7045   -3.0254   57.0682 S.3     1  ZINC000499369364    0.1300
     20 C20       -12.3628   -2.4967   58.6147 C.2     1  ZINC000499369364    0.2000
     21 N21       -11.6915   -1.9451   59.6024 N.2     1  ZINC000499369364   -0.3400
     22 N22       -12.4742   -1.6803   60.5855 N.2     1  ZINC000499369364   -0.0300
     23 N23       -13.6812   -2.0359   60.3056 N.2     1  ZINC000499369364   -0.0800
     24 N24       -13.6560   -2.5763   59.0080 N.pl3   1  ZINC000499369364   -0.3300
     25 C25       -14.7851   -3.1178   58.2479 C.3     1  ZINC000499369364    0.0500
     26 C26       -15.8874   -3.8321   59.0326 C.3     1  ZINC000499369364   -0.1500
     27 C27       -16.1482   -2.4483   58.4342 C.3     1  ZINC000499369364   -0.1600
     28 H28       -14.4451    1.1159   55.1605 H       1  ZINC000499369364    0.0600
     29 H29       -12.6657    1.1128   55.1141 H       1  ZINC000499369364    0.0600
     30 H30       -13.5802    2.2635   54.1102 H       1  ZINC000499369364    0.0600
     31 H31       -13.5935   -0.7729   53.7982 H       1  ZINC000499369364    0.0800
     32 H32       -15.7475    0.2959   53.1923 H       1  ZINC000499369364    0.0600
     33 H33       -14.8825    1.4434   52.1419 H       1  ZINC000499369364    0.0600
     34 H34       -14.8958   -0.2913   51.7437 H       1  ZINC000499369364    0.0500
     35 H35       -12.3663    2.5727   52.7222 H       1  ZINC000499369364    0.0600
     36 H36       -11.5145    1.9857   51.2737 H       1  ZINC000499369364    0.0600
     37 H37       -13.2939    1.9888   51.3198 H       1  ZINC000499369364    0.0700
     38 H38       -11.1205    0.5608   54.1986 H       1  ZINC000499369364    0.4000
     39 H39        -6.8498    0.2937   53.3026 H       1  ZINC000499369364    0.1200
     40 H40        -8.1434    1.1252   52.3745 H       1  ZINC000499369364    0.1300
     41 H41        -7.6833   -0.1330   56.3065 H       1  ZINC000499369364    0.1100
     42 H42        -9.3089    0.5426   56.6565 H       1  ZINC000499369364    0.1200
     43 H43        -9.5134   -2.0966   57.4089 H       1  ZINC000499369364    0.1300
     44 H44       -10.7436   -0.8261   57.2071 H       1  ZINC000499369364    0.1300
     45 H45       -14.5438   -3.5009   57.2564 H       1  ZINC000499369364    0.1600
     46 H46       -16.3714   -4.6854   58.5575 H       1  ZINC000499369364    0.1200
     47 H47       -15.7724   -3.8990   60.1144 H       1  ZINC000499369364    0.1200
     48 H48       -16.2048   -1.6049   59.1224 H       1  ZINC000499369364    0.1100
     49 H49       -16.8038   -2.3912   57.5653 H       1  ZINC000499369364    0.1200
@<TRIPOS>BOND
     1     1     2    1
     2     1    28    1
     3     1    29    1
     4     1    30    1
     5     2     3    1
     6     2     4    1
     7     2    31    1
     8     3    32    1
     9     3    33    1
    10     3    34    1
    11     4     5    1
    12     4     6    1
    13     4     7    1
    14     6    35    1
    15     6    36    1
    16     6    37    1
    17     7     8   am
    18     7    38    1
    19     8     9    2
    20     8    10    1
    21    10    11    1
    22    10    15    1
    23    10    12    1
    24    12    13    1
    25    12    39    1
    26    12    40    1
    27    13    14    1
    28    14    15    1
    29    14    41    1
    30    14    42    1
    31    15    16   am
    32    16    17    2
    33    16    18    1
    34    18    19    1
    35    18    43    1
    36    18    44    1
    37    19    20    1
    38    20    24    1
    39    20    21    2
    40    21    22    1
    41    22    23    2
    42    23    24    1
    43    24    25    1
    44    25    27    1
    45    25    26    1
    46    25    45    1
    47    26    27    1
    48    26    46    1
    49    26    47    1
    50    27    48    1
    51    27    49    1
@<TRIPOS>SUBSTRUCTURE
     1 ZINC000499369364        1 TEMP              0 ****  ****    0 ROOT


##########                                Name:    ZINC001386869844
##########                DOCK_Rotatable_Bonds:                   9
##########                         Heavy_Atoms:                  25
##########                    Molecular_Weight:             345.485
##########                DOCK_Rotatable_Bonds:                   9
##########                       Formal_Charge:          -0.0300003
##########                     HBond_Acceptors:                   5
##########                        HBond_Donors:                   2
##########                         Heavy_Atoms:                  25
##########                          Grid_Score:          -30.682970
##########                     Grid_vdw_energy:          -29.547401
##########                      Grid_es_energy:           -1.135568
##########           Internal_energy_repulsive:           34.375572

@<TRIPOS>MOLECULE
ZINC001386869844
 56 58 1 0 0
SMALL
USER_CHARGES


@<TRIPOS>ATOM
      1 C1         -9.2609   -1.8140   58.6514 C.3     1  ZINC001386869844    0.0600
      2 N2         -9.3348   -1.2920   60.0183 N.am    1  ZINC001386869844   -0.6200
      3 C3        -10.4100   -1.7292   60.9121 C.3     1  ZINC001386869844    0.1100
      4 C4        -11.6868   -0.9486   60.5939 C.3     1  ZINC001386869844    0.1000
      5 N5        -12.7113   -1.8700   60.0962 N.am    1  ZINC001386869844   -0.7300
      6 C6        -14.0129   -1.6337   60.3542 C.2     1  ZINC001386869844    0.5200
      7 O7        -14.3356   -0.6609   61.0025 O.2     1  ZINC001386869844   -0.5300
      8 C8        -15.0667   -2.5815   59.8422 C.3     1  ZINC001386869844   -0.1300
      9 C9        -15.1509   -2.4754   58.3182 C.3     1  ZINC001386869844   -0.0100
     10 C10       -14.0460   -3.3240   57.6860 C.3     1  ZINC001386869844   -0.1500
     11 C11       -16.5156   -2.9813   57.8464 C.3     1  ZINC001386869844   -0.1600
     12 C12       -14.9756   -1.0146   57.8984 C.3     1  ZINC001386869844   -0.1500
     13 C13       -16.1732   -0.3171   57.2503 C.3     1  ZINC001386869844   -0.1900
     14 C14       -14.9619   -0.7072   56.3996 C.3     1  ZINC001386869844   -0.1800
     15 C15        -8.4136   -0.4097   60.4535 C.2     1  ZINC001386869844    0.5900
     16 O16        -7.5205   -0.0466   59.7110 O.2     1  ZINC001386869844   -0.5200
     17 C17        -8.4877    0.1129   61.8221 C.2     1  ZINC001386869844   -0.0600
     18 C18        -9.1971    1.2234   62.2336 C.2     1  ZINC001386869844   -0.0900
     19 C19        -8.9884    1.3544   63.6041 C.2     1  ZINC001386869844   -0.1700
     20 C20        -8.1709    0.3443   64.0038 C.2     1  ZINC001386869844    0.0500
     21 C21        -7.7097    0.1490   65.4286 C.3     1  ZINC001386869844   -0.0600
     22 C22        -7.9528    1.4522   66.1990 C.3     1  ZINC001386869844   -0.1100
     23 C23        -9.3925    1.9204   65.9710 C.3     1  ZINC001386869844   -0.1200
     24 C24        -9.5480    2.4092   64.5258 C.3     1  ZINC001386869844   -0.0500
     25 N25        -7.8669   -0.4192   62.9312 N.pl3   1  ZINC001386869844   -0.5400
     26 H26        -9.7354   -1.1102   57.9676 H       1  ZINC001386869844    0.0600
     27 H27        -8.2164   -1.9467   58.3692 H       1  ZINC001386869844    0.0800
     28 H28        -9.7757   -2.7733   58.6005 H       1  ZINC001386869844    0.0900
     29 H29       -10.1199   -1.5452   61.9466 H       1  ZINC001386869844    0.1000
     30 H30       -10.5904   -2.7947   60.7695 H       1  ZINC001386869844    0.0900
     31 H31       -11.4734   -0.1976   59.8334 H       1  ZINC001386869844    0.0700
     32 H32       -12.0476   -0.4581   61.4979 H       1  ZINC001386869844    0.0700
     33 H33       -12.4528   -2.6503   59.5811 H       1  ZINC001386869844    0.4000
     34 H34       -14.8041   -3.6019   60.1214 H       1  ZINC001386869844    0.0900
     35 H35       -16.0314   -2.3223   60.2783 H       1  ZINC001386869844    0.0900
     36 H36       -14.1709   -4.3646   57.9851 H       1  ZINC001386869844    0.0800
     37 H37       -14.1060   -3.2483   56.6002 H       1  ZINC001386869844    0.0500
     38 H38       -13.0737   -2.9636   58.0221 H       1  ZINC001386869844    0.0500
     39 H39       -17.3028   -2.3768   58.2968 H       1  ZINC001386869844    0.0500
     40 H40       -16.5757   -2.9056   56.7606 H       1  ZINC001386869844    0.0500
     41 H41       -16.6406   -4.0219   58.1456 H       1  ZINC001386869844    0.0800
     42 H42       -14.3311   -0.4148   58.5410 H       1  ZINC001386869844    0.1000
     43 H43       -17.0862   -0.8989   57.1231 H       1  ZINC001386869844    0.1000
     44 H44       -16.3166    0.7416   57.4664 H       1  ZINC001386869844    0.0900
     45 H45       -14.3088    0.0952   56.0563 H       1  ZINC001386869844    0.0900
     46 H46       -15.0779   -1.5455   55.7127 H       1  ZINC001386869844    0.0900
     47 H47        -9.7991    1.8685   61.6107 H       1  ZINC001386869844    0.1500
     48 H48        -8.2751   -0.6608   65.8897 H       1  ZINC001386869844    0.0800
     49 H49        -6.6466   -0.0916   65.4406 H       1  ZINC001386869844    0.0800
     50 H50        -7.7909    1.2805   67.2631 H       1  ZINC001386869844    0.0700
     51 H51        -7.2617    2.2173   65.8455 H       1  ZINC001386869844    0.0700
     52 H52       -10.0770    1.0911   66.1498 H       1  ZINC001386869844    0.0600
     53 H53        -9.6224    2.7356   66.6570 H       1  ZINC001386869844    0.0700
     54 H54        -8.9994    3.3416   64.3926 H       1  ZINC001386869844    0.0700
     55 H55       -10.6032    2.5685   64.3036 H       1  ZINC001386869844    0.0700
     56 H56        -7.3038   -1.2090   62.9402 H       1  ZINC001386869844    0.4200
@<TRIPOS>BOND
     1     1     2    1
     2     1    26    1
     3     1    27    1
     4     1    28    1
     5     2     3    1
     6     2    15   am
     7     3     4    1
     8     3    29    1
     9     3    30    1
    10     4     5    1
    11     4    31    1
    12     4    32    1
    13     5     6   am
    14     5    33    1
    15     6     7    2
    16     6     8    1
    17     8     9    1
    18     8    34    1
    19     8    35    1
    20     9    10    1
    21     9    11    1
    22     9    12    1
    23    10    36    1
    24    10    37    1
    25    10    38    1
    26    11    39    1
    27    11    40    1
    28    11    41    1
    29    12    14    1
    30    12    13    1
    31    12    42    1
    32    13    14    1
    33    13    43    1
    34    13    44    1
    35    14    45    1
    36    14    46    1
    37    15    16    2
    38    15    17    1
    39    17    25    1
    40    17    18    2
    41    18    19    1
    42    18    47    1
    43    19    24    1
    44    19    20    2
    45    20    21    1
    46    20    25    1
    47    21    22    1
    48    21    48    1
    49    21    49    1
    50    22    23    1
    51    22    50    1
    52    22    51    1
    53    23    24    1
    54    23    52    1
    55    23    53    1
    56    24    54    1
    57    24    55    1
    58    25    56    1
@<TRIPOS>SUBSTRUCTURE
     1 ZINC001386869844        1 TEMP              0 ****  ****    0 ROOT


##########                                Name:    ZINC000573650873
##########                DOCK_Rotatable_Bonds:                  10
##########                         Heavy_Atoms:                  28
##########                    Molecular_Weight:             418.843
##########                DOCK_Rotatable_Bonds:                  10
##########                       Formal_Charge:          -0.0500001
##########                     HBond_Acceptors:                   9
##########                        HBond_Donors:                   1
##########                         Heavy_Atoms:                  28
##########                          Grid_Score:          -30.676182
##########                     Grid_vdw_energy:          -30.773642
##########                      Grid_es_energy:            0.097461
##########           Internal_energy_repulsive:           13.773998

@<TRIPOS>MOLECULE
ZINC000573650873
 50 51 1 0 0
SMALL
USER_CHARGES


@<TRIPOS>ATOM
      1 C1        -15.7908   -1.0441   58.9631 C.3     1  ZINC000573650873   -0.1400
      2 C2        -15.5051   -2.3641   58.2441 C.3     1  ZINC000573650873    0.0100
      3 C3        -15.7631   -3.5314   59.1990 C.3     1  ZINC000573650873   -0.1400
      4 C4        -16.4217   -2.4899   57.0255 C.3     1  ZINC000573650873   -0.1500
      5 C5        -14.0666   -2.3907   57.7955 C.2     1  ZINC000573650873   -0.0100
      6 C6        -13.5924   -2.0308   56.5803 C.2     1  ZINC000573650873   -0.1800
      7 C7        -12.1895   -2.2436   56.6836 C.2     1  ZINC000573650873   -0.0300
      8 C8        -11.1722   -2.0073   55.6303 C.2     1  ZINC000573650873    0.6000
      9 O9        -11.0313   -2.8115   54.7306 O.2     1  ZINC000573650873   -0.5100
     10 N10       -10.4041   -0.9005   55.6713 N.am    1  ZINC000573650873   -0.5900
     11 C11        -9.3993   -0.6672   54.6310 C.3     1  ZINC000573650873    0.1200
     12 C12       -10.0992   -0.3968   53.2976 C.3     1  ZINC000573650873   -0.1000
     13 C13        -9.1608    0.3419   52.3785 C.ar    1  ZINC000573650873   -0.0800
     14 C14        -8.0891   -0.3196   51.8083 C.ar    1  ZINC000573650873   -0.1000
     15 C15        -7.2280    0.3572   50.9652 C.ar    1  ZINC000573650873   -0.1100
     16 C16        -7.4388    1.6970   50.6920 C.ar    1  ZINC000573650873   -0.0400
     17 Cl17       -6.3581    2.5477   49.6327 Cl      1  ZINC000573650873   -0.0700
     18 C18        -8.5115    2.3585   51.2630 C.ar    1  ZINC000573650873   -0.1100
     19 C19        -9.3751    1.6791   52.1015 C.ar    1  ZINC000573650873   -0.1000
     20 C20       -10.5740    0.0691   56.7563 C.3     1  ZINC000573650873    0.0700
     21 C21        -9.6173   -0.2729   57.9004 C.3     1  ZINC000573650873    0.0600
     22 H22        -9.5883   -1.3536   58.0389 H       1  ZINC000573650873    0.1400
     23 O23        -8.3073    0.2022   57.5839 O.3     1  ZINC000573650873   -0.5200
     24 C24       -10.1042    0.3935   59.1887 C.3     1  ZINC000573650873    0.4300
     25 F25       -10.1130    1.7824   59.0208 F       1  ZINC000573650873   -0.1700
     26 F26       -11.3985   -0.0489   59.4822 F       1  ZINC000573650873   -0.1700
     27 F27        -9.2463    0.0564   60.2412 F       1  ZINC000573650873   -0.1800
     28 N28       -11.9776   -2.6896   57.8968 N.2     1  ZINC000573650873   -0.3400
     29 O29       -13.0079   -2.7701   58.5243 O.3     1  ZINC000573650873    0.1300
     30 H30       -15.1377   -0.9546   59.8313 H       1  ZINC000573650873    0.0600
     31 H31       -15.6069   -0.2126   58.2828 H       1  ZINC000573650873    0.0600
     32 H32       -16.8312   -1.0249   59.2875 H       1  ZINC000573650873    0.0700
     33 H33       -16.8035   -3.5121   59.5235 H       1  ZINC000573650873    0.0700
     34 H34       -15.5596   -4.4716   58.6867 H       1  ZINC000573650873    0.0600
     35 H35       -15.1101   -3.4418   60.0671 H       1  ZINC000573650873    0.0600
     36 H36       -16.2379   -1.6584   56.3452 H       1  ZINC000573650873    0.0600
     37 H37       -16.2182   -3.4302   56.5132 H       1  ZINC000573650873    0.0600
     38 H38       -17.4621   -2.4706   57.3500 H       1  ZINC000573650873    0.0700
     39 H39       -14.1495   -1.6668   55.7297 H       1  ZINC000573650873    0.1800
     40 H40        -8.7889    0.1941   54.9022 H       1  ZINC000573650873    0.0900
     41 H41        -8.7638   -1.5476   54.5359 H       1  ZINC000573650873    0.1000
     42 H42       -10.3863   -1.3433   52.8395 H       1  ZINC000573650873    0.0800
     43 H43       -10.9894    0.2080   53.4706 H       1  ZINC000573650873    0.0800
     44 H44        -7.9245   -1.3655   52.0219 H       1  ZINC000573650873    0.1300
     45 H45        -6.3907   -0.1595   50.5201 H       1  ZINC000573650873    0.1300
     46 H46        -8.6763    3.4045   51.0504 H       1  ZINC000573650873    0.1300
     47 H47       -10.2126    2.1953   52.5470 H       1  ZINC000573650873    0.1300
     48 H48       -10.3546    1.0705   56.3863 H       1  ZINC000573650873    0.1000
     49 H49       -11.6014    0.0327   57.1187 H       1  ZINC000573650873    0.1200
     50 H50        -8.2644    1.1530   57.4128 H       1  ZINC000573650873    0.3900
@<TRIPOS>BOND
     1     1     2    1
     2     1    30    1
     3     1    31    1
     4     1    32    1
     5     2     3    1
     6     2     4    1
     7     2     5    1
     8     3    33    1
     9     3    34    1
    10     3    35    1
    11     4    36    1
    12     4    37    1
    13     4    38    1
    14     5    29    1
    15     5     6    2
    16     6     7    1
    17     6    39    1
    18     7     8    1
    19     7    28    2
    20     8     9    2
    21     8    10   am
    22    10    11    1
    23    10    20    1
    24    11    12    1
    25    11    40    1
    26    11    41    1
    27    12    13    1
    28    12    42    1
    29    12    43    1
    30    13    19   ar
    31    13    14   ar
    32    14    15   ar
    33    14    44    1
    34    15    16   ar
    35    15    45    1
    36    16    17    1
    37    16    18   ar
    38    18    19   ar
    39    18    46    1
    40    19    47    1
    41    20    21    1
    42    20    48    1
    43    20    49    1
    44    21    22    1
    45    21    23    1
    46    21    24    1
    47    23    50    1
    48    24    25    1
    49    24    26    1
    50    24    27    1
    51    28    29    1
@<TRIPOS>SUBSTRUCTURE
     1 ZINC000573650873        1 TEMP              0 ****  ****    0 ROOT


##########                                Name:    ZINC000477589488
##########                DOCK_Rotatable_Bonds:                   6
##########                         Heavy_Atoms:                  32
##########                    Molecular_Weight:             423.517
##########                DOCK_Rotatable_Bonds:                   6
##########                       Formal_Charge:        -8.19564e-07
##########                     HBond_Acceptors:                   6
##########                        HBond_Donors:                   1
##########                         Heavy_Atoms:                  32
##########                          Grid_Score:          -30.662260
##########                     Grid_vdw_energy:          -29.934422
##########                      Grid_es_energy:           -0.727839
##########           Internal_energy_repulsive:           26.077419

@<TRIPOS>MOLECULE
ZINC000477589488
 57 61 1 0 0
SMALL
USER_CHARGES


@<TRIPOS>ATOM
      1 O1         -9.1330    0.1170   52.3617 O.2     1  ZINC000477589488   -0.5800
      2 C2         -8.4967    0.9298   53.0043 C.2     1  ZINC000477589488    0.7100
      3 N3         -8.6638    1.0136   54.3390 N.am    1  ZINC000477589488   -0.7400
      4 C4         -9.6165    0.1295   55.0149 C.3     1  ZINC000477589488    0.2500
      5 H5         -9.5878   -0.8571   54.5523 H       1  ZINC000477589488    0.1100
      6 C6        -11.0056    0.7010   54.8933 C.ar    1  ZINC000477589488   -0.0900
      7 C7        -11.9922   -0.0136   54.2398 C.ar    1  ZINC000477589488   -0.1000
      8 C8        -13.2664    0.5106   54.1283 C.ar    1  ZINC000477589488   -0.1200
      9 C9        -13.5542    1.7492   54.6708 C.ar    1  ZINC000477589488   -0.1200
     10 C10       -12.5679    2.4632   55.3251 C.ar    1  ZINC000477589488   -0.1200
     11 C11       -11.2947    1.9371   55.4404 C.ar    1  ZINC000477589488   -0.1000
     12 C12        -9.2471    0.0123   56.4712 C.ar    1  ZINC000477589488   -0.0700
     13 C13        -9.5873   -1.1427   57.1954 C.ar    1  ZINC000477589488   -0.0400
     14 C14       -10.2733   -2.2088   56.5888 C.ar    1  ZINC000477589488   -0.1100
     15 C15       -10.5859   -3.3121   57.3215 C.ar    1  ZINC000477589488   -0.1100
     16 C16       -10.2365   -3.4022   58.6679 C.ar    1  ZINC000477589488   -0.1100
     17 C17        -9.5725   -2.3895   59.2888 C.ar    1  ZINC000477589488   -0.1100
     18 C18        -9.2316   -1.2344   58.5644 C.ar    1  ZINC000477589488   -0.0500
     19 C19        -8.5457   -0.1686   59.1708 C.ar    1  ZINC000477589488   -0.1000
     20 C20        -8.2318    0.9344   58.4375 C.ar    1  ZINC000477589488   -0.1100
     21 C21        -8.5771    1.0226   57.0905 C.ar    1  ZINC000477589488   -0.1100
     22 N22        -7.6202    1.7432   52.3824 N.am    1  ZINC000477589488   -0.6300
     23 C23        -6.8316    2.7252   53.1420 C.3     1  ZINC000477589488    0.1300
     24 C24        -5.3550    2.5575   52.7683 C.3     1  ZINC000477589488    0.0500
     25 N25        -5.2102    2.6399   51.3088 N.3     1  ZINC000477589488   -0.4700
     26 C26        -3.8693    2.6553   50.9411 C.ar    1  ZINC000477589488    0.2500
     27 C27        -3.3569    1.6531   50.1183 C.ar    1  ZINC000477589488   -0.1300
     28 C28        -2.0139    1.7140   49.7809 C.ar    1  ZINC000477589488   -0.0900
     29 C29        -1.2625    2.7675   50.2821 C.ar    1  ZINC000477589488    0.0200
     30 N30        -1.8293    3.6729   51.0547 N.ar    1  ZINC000477589488   -0.2200
     31 N31        -3.0734    3.6258   51.3667 N.ar    1  ZINC000477589488   -0.2800
     32 C32        -5.9270    1.5461   50.6396 C.3     1  ZINC000477589488    0.0400
     33 C33        -7.4227    1.6682   50.9269 C.3     1  ZINC000477589488    0.1200
     34 H34        -8.1532    1.6592   54.8521 H       1  ZINC000477589488    0.3900
     35 H35       -11.7674   -0.9811   53.8161 H       1  ZINC000477589488    0.1100
     36 H36       -14.0370   -0.0473   53.6172 H       1  ZINC000477589488    0.1200
     37 H37       -14.5496    2.1590   54.5831 H       1  ZINC000477589488    0.1200
     38 H38       -12.7926    3.4310   55.7486 H       1  ZINC000477589488    0.1200
     39 H39       -10.5241    2.4950   55.9515 H       1  ZINC000477589488    0.1200
     40 H40       -10.5511   -2.1528   55.5466 H       1  ZINC000477589488    0.1300
     41 H41       -11.1130   -4.1300   56.8530 H       1  ZINC000477589488    0.1300
     42 H42       -10.4970   -4.2889   59.2268 H       1  ZINC000477589488    0.1300
     43 H43        -9.3089   -2.4731   60.3328 H       1  ZINC000477589488    0.1300
     44 H44        -8.2694   -0.2241   60.2134 H       1  ZINC000477589488    0.1300
     45 H45        -7.7050    1.7524   58.9062 H       1  ZINC000477589488    0.1300
     46 H46        -8.3159    1.9088   56.5313 H       1  ZINC000477589488    0.1200
     47 H47        -7.1610    3.7332   52.8899 H       1  ZINC000477589488    0.0800
     48 H48        -6.9610    2.5511   54.2103 H       1  ZINC000477589488    0.1100
     49 H49        -4.7691    3.3481   53.2371 H       1  ZINC000477589488    0.1000
     50 H50        -5.0001    1.5869   53.1148 H       1  ZINC000477589488    0.0600
     51 H51        -3.9866    0.8541   49.7556 H       1  ZINC000477589488    0.1500
     52 H52        -1.5654    0.9634   49.1470 H       1  ZINC000477589488    0.1500
     53 H53        -0.2130    2.8455   50.0395 H       1  ZINC000477589488    0.1700
     54 H54        -5.7560    1.6033   49.5646 H       1  ZINC000477589488    0.1000
     55 H55        -5.5641    0.5897   51.0157 H       1  ZINC000477589488    0.0600
     56 H56        -7.9440    0.7975   50.5294 H       1  ZINC000477589488    0.0800
     57 H57        -7.8117    2.5747   50.4633 H       1  ZINC000477589488    0.0900
@<TRIPOS>BOND
     1     1     2    2
     2     2     3   am
     3     2    22   am
     4     3     4    1
     5     3    34    1
     6     4     5    1
     7     4     6    1
     8     4    12    1
     9     6    11   ar
    10     6     7   ar
    11     7     8   ar
    12     7    35    1
    13     8     9   ar
    14     8    36    1
    15     9    10   ar
    16     9    37    1
    17    10    11   ar
    18    10    38    1
    19    11    39    1
    20    12    21   ar
    21    12    13   ar
    22    13    18   ar
    23    13    14   ar
    24    14    15   ar
    25    14    40    1
    26    15    16   ar
    27    15    41    1
    28    16    17   ar
    29    16    42    1
    30    17    18   ar
    31    17    43    1
    32    18    19   ar
    33    19    20   ar
    34    19    44    1
    35    20    21   ar
    36    20    45    1
    37    21    46    1
    38    22    33    1
    39    22    23    1
    40    23    24    1
    41    23    47    1
    42    23    48    1
    43    24    25    1
    44    24    49    1
    45    24    50    1
    46    25    26    1
    47    25    32    1
    48    26    31   ar
    49    26    27   ar
    50    27    28   ar
    51    27    51    1
    52    28    29   ar
    53    28    52    1
    54    29    30   ar
    55    29    53    1
    56    30    31   ar
    57    32    33    1
    58    32    54    1
    59    32    55    1
    60    33    56    1
    61    33    57    1
@<TRIPOS>SUBSTRUCTURE
     1 ZINC000477589488        1 TEMP              0 ****  ****    0 ROOT


##########                                Name:    ZINC000944933040
##########                DOCK_Rotatable_Bonds:                   4
##########                         Heavy_Atoms:                  26
##########                    Molecular_Weight:             354.449
##########                DOCK_Rotatable_Bonds:                   4
##########                       Formal_Charge:           0.0100002
##########                     HBond_Acceptors:                   5
##########                        HBond_Donors:                   0
##########                         Heavy_Atoms:                  26
##########                          Grid_Score:          -30.657207
##########                     Grid_vdw_energy:          -30.518976
##########                      Grid_es_energy:           -0.138232
##########           Internal_energy_repulsive:           10.082937

@<TRIPOS>MOLECULE
ZINC000944933040
 52 57 1 0 0
SMALL
USER_CHARGES


@<TRIPOS>ATOM
      1 O1         -4.7650    3.9758   50.7109 O.2     1  ZINC000944933040   -0.5200
      2 C2         -5.0831    2.8021   50.7244 C.2     1  ZINC000944933040    0.6400
      3 C3         -4.2259    1.8209   50.1299 C.1     1  ZINC000944933040   -0.2200
      4 C4         -3.5232    1.0167   49.6425 C.1     1  ZINC000944933040   -0.0400
      5 C5         -2.6422    0.0083   49.0313 C.3     1  ZINC000944933040   -0.0700
      6 C6         -2.3548    0.1357   47.5339 C.3     1  ZINC000944933040   -0.1600
      7 C7         -1.2642    0.4706   48.5535 C.3     1  ZINC000944933040   -0.1600
      8 N8         -6.2397    2.4240   51.3038 N.am    1  ZINC000944933040   -0.6000
      9 C9         -7.1298    3.4222   51.9112 C.3     1  ZINC000944933040    0.1100
     10 C10        -7.3873    3.0299   53.3710 C.3     1  ZINC000944933040   -0.1200
     11 C11        -7.8670    1.5815   53.4224 C.3     1  ZINC000944933040   -0.0900
     12 C12        -8.3666    1.1478   54.8074 C.3     1  ZINC000944933040    0.1200
     13 N13        -9.4674    0.4781   54.0861 N.am    1  ZINC000944933040   -0.6400
     14 C14       -10.2860   -0.5561   54.3631 C.2     1  ZINC000944933040    0.5500
     15 O15       -11.1244   -0.8988   53.5565 O.2     1  ZINC000944933040   -0.5300
     16 C16       -10.1596   -1.2867   55.6751 C.3     1  ZINC000944933040   -0.1300
     17 H17        -9.1348   -1.2412   56.0437 H       1  ZINC000944933040    0.1100
     18 C18       -10.6267   -2.7577   55.5317 C.3     1  ZINC000944933040   -0.1300
     19 C19       -11.8297   -2.8355   56.5190 C.3     1  ZINC000944933040    0.0900
     20 H20       -12.5409   -3.6388   56.3268 H       1  ZINC000944933040    0.1300
     21 O21       -12.3667   -1.4755   56.4227 O.3     1  ZINC000944933040   -0.3600
     22 C22       -11.1512   -0.7065   56.7278 C.3     1  ZINC000944933040    0.1200
     23 H23       -11.2663    0.3774   56.7312 H       1  ZINC000944933040    0.1400
     24 C24       -10.7259   -1.3375   58.0876 C.3     1  ZINC000944933040   -0.2000
     25 H25        -9.7592   -1.0568   58.5057 H       1  ZINC000944933040    0.1200
     26 C26       -11.8413   -1.8486   59.0017 C.3     1  ZINC000944933040   -0.1300
     27 C27       -11.1956   -2.8310   57.9422 C.3     1  ZINC000944933040   -0.2000
     28 H28       -10.6045   -3.6846   58.2743 H       1  ZINC000944933040    0.1300
     29 C29        -9.3126    1.3962   52.9400 C.3     1  ZINC000944933040    0.1100
     30 C30        -6.8826    0.5993   52.7922 C.3     1  ZINC000944933040   -0.1100
     31 C31        -6.6311    1.0084   51.3312 C.3     1  ZINC000944933040    0.1100
     32 H32        -2.7202   -0.9970   49.4453 H       1  ZINC000944933040    0.1400
     33 H33        -2.2437   -0.7859   46.9626 H       1  ZINC000944933040    0.1100
     34 H34        -2.8180    0.9663   47.0015 H       1  ZINC000944933040    0.1000
     35 H35        -1.0100    1.5214   48.6917 H       1  ZINC000944933040    0.1000
     36 H36        -0.4357   -0.2307   48.6528 H       1  ZINC000944933040    0.1100
     37 H37        -6.6571    4.4036   51.8745 H       1  ZINC000944933040    0.0900
     38 H38        -8.0742    3.4484   51.3678 H       1  ZINC000944933040    0.0800
     39 H39        -6.4646    3.1286   53.9431 H       1  ZINC000944933040    0.0800
     40 H40        -8.1511    3.6821   53.7943 H       1  ZINC000944933040    0.0900
     41 H41        -7.6952    0.4600   55.3213 H       1  ZINC000944933040    0.0800
     42 H42        -8.6928    1.9761   55.4363 H       1  ZINC000944933040    0.0900
     43 H43       -10.9508   -2.9623   54.5113 H       1  ZINC000944933040    0.0800
     44 H44        -9.8358   -3.4450   55.8319 H       1  ZINC000944933040    0.0900
     45 H45       -11.5913   -2.0249   60.0480 H       1  ZINC000944933040    0.1000
     46 H46       -12.8502   -1.4799   58.8167 H       1  ZINC000944933040    0.1000
     47 H47        -9.9199    2.2983   53.0140 H       1  ZINC000944933040    0.0900
     48 H48        -9.3929    0.9059   51.9699 H       1  ZINC000944933040    0.0800
     49 H49        -5.9436    0.6192   53.3454 H       1  ZINC000944933040    0.0800
     50 H50        -7.3023   -0.4061   52.8206 H       1  ZINC000944933040    0.0800
     51 H51        -7.5415    0.8641   50.7495 H       1  ZINC000944933040    0.0700
     52 H52        -5.8282    0.4003   50.9145 H       1  ZINC000944933040    0.1000
@<TRIPOS>BOND
     1     1     2    2
     2     2     3    1
     3     2     8   am
     4     3     4    3
     5     4     5    1
     6     5     7    1
     7     5     6    1
     8     5    32    1
     9     6     7    1
    10     6    33    1
    11     6    34    1
    12     7    35    1
    13     7    36    1
    14     8    31    1
    15     8     9    1
    16     9    10    1
    17     9    37    1
    18     9    38    1
    19    10    11    1
    20    10    39    1
    21    10    40    1
    22    11    29    1
    23    11    12    1
    24    11    30    1
    25    12    13    1
    26    12    41    1
    27    12    42    1
    28    13    14   am
    29    13    29    1
    30    14    15    2
    31    14    16    1
    32    16    17    1
    33    16    22    1
    34    16    18    1
    35    18    19    1
    36    18    43    1
    37    18    44    1
    38    19    20    1
    39    19    27    1
    40    19    21    1
    41    21    22    1
    42    22    23    1
    43    22    24    1
    44    24    25    1
    45    24    27    1
    46    24    26    1
    47    26    27    1
    48    26    45    1
    49    26    46    1
    50    27    28    1
    51    29    47    1
    52    29    48    1
    53    30    31    1
    54    30    49    1
    55    30    50    1
    56    31    51    1
    57    31    52    1
@<TRIPOS>SUBSTRUCTURE
     1 ZINC000944933040        1 TEMP              0 ****  ****    0 ROOT


##########                                Name:    ZINC000032503012
##########                DOCK_Rotatable_Bonds:                   8
##########                         Heavy_Atoms:                  27
##########                    Molecular_Weight:             390.503
##########                DOCK_Rotatable_Bonds:                   8
##########                       Formal_Charge:           0.0099995
##########                     HBond_Acceptors:                   7
##########                        HBond_Donors:                   2
##########                         Heavy_Atoms:                  27
##########                          Grid_Score:          -30.656914
##########                     Grid_vdw_energy:          -29.878372
##########                      Grid_es_energy:           -0.778541
##########           Internal_energy_repulsive:           30.547846

@<TRIPOS>MOLECULE
ZINC000032503012
 53 54 1 0 0
SMALL
USER_CHARGES


@<TRIPOS>ATOM
      1 C1         -3.8751    4.2658   52.4945 C.3     1  ZINC000032503012   -0.1200
      2 C2         -4.6872    3.1506   51.8878 C.ar    1  ZINC000032503012   -0.0500
      3 C3         -4.5703    2.8654   50.5402 C.ar    1  ZINC000032503012   -0.1600
      4 C4         -5.3141    1.8427   49.9804 C.ar    1  ZINC000032503012   -0.0700
      5 C5         -6.1760    1.1036   50.7670 C.ar    1  ZINC000032503012   -0.1500
      6 C6         -6.2951    1.3880   52.1198 C.ar    1  ZINC000032503012    0.1300
      7 O7         -7.1422    0.6619   52.8960 O.3     1  ZINC000032503012   -0.2800
      8 C8         -8.2577    1.3532   53.4611 C.3     1  ZINC000032503012    0.0700
      9 H9         -7.9222    2.3001   53.8841 H       1  ZINC000032503012    0.1100
     10 C10        -9.2971    1.6215   52.3709 C.3     1  ZINC000032503012   -0.1800
     11 C11        -8.8747    0.5088   54.5462 C.2     1  ZINC000032503012    0.5200
     12 O12        -8.7533   -0.6977   54.5186 O.2     1  ZINC000032503012   -0.4900
     13 N13        -9.5612    1.0942   55.5474 N.am    1  ZINC000032503012   -0.6700
     14 C14       -10.1340    0.3103   56.5550 C.ar    1  ZINC000032503012    0.1300
     15 C15       -11.4780   -0.0328   56.4901 C.ar    1  ZINC000032503012   -0.0600
     16 C16       -12.0405   -0.8067   57.4863 C.ar    1  ZINC000032503012   -0.1200
     17 C17       -11.2671   -1.2394   58.5476 C.ar    1  ZINC000032503012   -0.0300
     18 C18        -9.9283   -0.8991   58.6153 C.ar    1  ZINC000032503012   -0.6600
     19 S19        -8.9469   -1.4531   59.9698 S.o2    1  ZINC000032503012    2.7000
     20 O20        -9.8554   -1.8914   60.9708 O.2     1  ZINC000032503012   -0.9600
     21 O21        -7.9363   -2.2862   59.4189 O.2     1  ZINC000032503012   -0.9500
     22 N22        -8.1731   -0.1265   60.5893 N.am    1  ZINC000032503012   -1.1100
     23 C23        -8.9525    1.0001   61.1085 C.3     1  ZINC000032503012    0.1700
     24 C24       -10.1224    0.4707   61.9403 C.3     1  ZINC000032503012   -0.1900
     25 C25        -8.0580    1.8774   61.9866 C.3     1  ZINC000032503012   -0.1500
     26 C26        -9.4911    1.8289   59.9405 C.3     1  ZINC000032503012   -0.1800
     27 C27        -9.3583   -0.1311   57.6192 C.ar    1  ZINC000032503012   -0.0400
     28 C28        -5.5437    2.4105   52.6800 C.ar    1  ZINC000032503012   -0.2100
     29 H29        -2.9203    3.8721   52.8426 H       1  ZINC000032503012    0.0700
     30 H30        -3.6986    5.0365   51.7441 H       1  ZINC000032503012    0.0700
     31 H31        -4.4193    4.6954   53.3356 H       1  ZINC000032503012    0.0700
     32 H32        -3.8973    3.4424   49.9234 H       1  ZINC000032503012    0.1300
     33 H33        -5.2214    1.6220   48.9273 H       1  ZINC000032503012    0.1300
     34 H34        -6.7569    0.3053   50.3294 H       1  ZINC000032503012    0.1300
     35 H35        -8.8509    2.2323   51.5860 H       1  ZINC000032503012    0.0800
     36 H36        -9.6326    0.6746   51.9479 H       1  ZINC000032503012    0.0800
     37 H37       -10.1481    2.1488   52.8019 H       1  ZINC000032503012    0.0800
     38 H38        -9.6583    2.0592   55.5695 H       1  ZINC000032503012    0.4100
     39 H39       -12.0829    0.3055   55.6618 H       1  ZINC000032503012    0.1400
     40 H40       -13.0858   -1.0739   57.4365 H       1  ZINC000032503012    0.1400
     41 H41       -11.7095   -1.8442   59.3254 H       1  ZINC000032503012    0.1500
     42 H42        -7.2038   -0.0954   60.6085 H       1  ZINC000032503012    0.4200
     43 H43        -9.7546   -0.2599   62.6608 H       1  ZINC000032503012    0.0700
     44 H44       -10.5949    1.2976   62.4704 H       1  ZINC000032503012    0.0800
     45 H45       -10.8511   -0.0029   61.2824 H       1  ZINC000032503012    0.0700
     46 H46        -7.2247    2.2546   61.3940 H       1  ZINC000032503012    0.0700
     47 H47        -8.6380    2.7157   62.3728 H       1  ZINC000032503012    0.0700
     48 H48        -7.6745    1.2870   62.8187 H       1  ZINC000032503012    0.0600
     49 H49       -10.2766    1.2709   59.4308 H       1  ZINC000032503012    0.0900
     50 H50        -9.8982    2.7670   60.3179 H       1  ZINC000032503012    0.0700
     51 H51        -8.6823    2.0392   59.2408 H       1  ZINC000032503012    0.0600
     52 H52        -8.3128    0.1343   57.6726 H       1  ZINC000032503012    0.1400
     53 H53        -5.6347    2.6338   53.7328 H       1  ZINC000032503012    0.1300
@<TRIPOS>BOND
     1     1     2    1
     2     1    29    1
     3     1    30    1
     4     1    31    1
     5     2    28   ar
     6     2     3   ar
     7     3     4   ar
     8     3    32    1
     9     4     5   ar
    10     4    33    1
    11     5     6   ar
    12     5    34    1
    13     6     7    1
    14     6    28   ar
    15     7     8    1
    16     8     9    1
    17     8    10    1
    18     8    11    1
    19    10    35    1
    20    10    36    1
    21    10    37    1
    22    11    12    2
    23    11    13   am
    24    13    14    1
    25    13    38    1
    26    14    27   ar
    27    14    15   ar
    28    15    16   ar
    29    15    39    1
    30    16    17   ar
    31    16    40    1
    32    17    18   ar
    33    17    41    1
    34    18    19    1
    35    18    27   ar
    36    19    20    2
    37    19    21    2
    38    19    22   am
    39    22    23    1
    40    22    42    1
    41    23    24    1
    42    23    25    1
    43    23    26    1
    44    24    43    1
    45    24    44    1
    46    24    45    1
    47    25    46    1
    48    25    47    1
    49    25    48    1
    50    26    49    1
    51    26    50    1
    52    26    51    1
    53    27    52    1
    54    28    53    1
@<TRIPOS>SUBSTRUCTURE
     1 ZINC000032503012        1 TEMP              0 ****  ****    0 ROOT


##########                                Name:    ZINC000893400114
##########                DOCK_Rotatable_Bonds:                   6
##########                         Heavy_Atoms:                  27
##########                    Molecular_Weight:             381.472
##########                DOCK_Rotatable_Bonds:                   6
##########                       Formal_Charge:           0.0300001
##########                     HBond_Acceptors:                   8
##########                        HBond_Donors:                   1
##########                         Heavy_Atoms:                  27
##########                          Grid_Score:          -30.625244
##########                     Grid_vdw_energy:          -30.705826
##########                      Grid_es_energy:            0.080581
##########           Internal_energy_repulsive:           82.072037

@<TRIPOS>MOLECULE
ZINC000893400114
 58 61 1 0 0
SMALL
USER_CHARGES


@<TRIPOS>ATOM
      1 O1        -11.1039   -0.7933   55.2947 O.2     1  ZINC000893400114   -0.5600
      2 C2        -10.1142   -0.2730   55.7725 C.2     1  ZINC000893400114    0.7100
      3 N3         -9.4058    0.6175   55.0502 N.am    1  ZINC000893400114   -0.7300
      4 C4         -9.8249    0.9542   53.6874 C.3     1  ZINC000893400114    0.1400
      5 H5        -10.8703    1.2625   53.6759 H       1  ZINC000893400114    0.1200
      6 C6         -9.6050   -0.2486   52.7409 C.3     1  ZINC000893400114   -0.1400
      7 C7         -8.2048    0.0564   52.1640 C.3     1  ZINC000893400114    0.1000
      8 N8         -8.0493    1.5124   52.2627 N.am    1  ZINC000893400114   -0.6200
      9 C9         -7.0490    2.2888   51.5258 C.3     1  ZINC000893400114    0.1600
     10 C10        -5.8207    2.5147   52.4125 C.3     1  ZINC000893400114   -0.1700
     11 C11        -4.7504    3.2578   51.6087 C.3     1  ZINC000893400114    0.0700
     12 O12        -4.4241    2.5025   50.4403 O.3     1  ZINC000893400114   -0.3800
     13 C13        -5.5237    2.3002   49.5503 C.3     1  ZINC000893400114    0.0700
     14 C14        -6.6250    1.5186   50.2714 C.3     1  ZINC000893400114   -0.1700
     15 C15        -8.9450    2.0447   53.1171 C.2     1  ZINC000893400114    0.5100
     16 O16        -9.0311    3.2237   53.3879 O.2     1  ZINC000893400114   -0.4900
     17 N17        -9.7287   -0.5827   57.0263 N.am    1  ZINC000893400114   -0.6300
     18 C18        -8.5380    0.0383   57.6278 C.3     1  ZINC000893400114    0.0800
     19 C19        -8.9250    0.5935   59.0033 C.3     1  ZINC000893400114    0.0500
     20 O20        -9.5574   -0.4370   59.7659 O.3     1  ZINC000893400114   -0.3800
     21 C21       -10.7785   -0.9188   59.1996 C.3     1  ZINC000893400114    0.0600
     22 C22       -10.4896   -1.5473   57.8361 C.3     1  ZINC000893400114    0.1400
     23 H23        -9.8994   -2.4542   57.9676 H       1  ZINC000893400114    0.0800
     24 C24       -11.8068   -1.8868   57.1358 C.3     1  ZINC000893400114   -0.1200
     25 C25       -12.6807   -2.7247   58.0714 C.3     1  ZINC000893400114    0.0700
     26 H26       -12.0529   -3.3781   58.6772 H       1  ZINC000893400114    0.0800
     27 C27       -13.6723   -3.5707   57.2442 C.3     1  ZINC000893400114   -0.1500
     28 C28       -14.9661   -3.4924   58.0997 C.3     1  ZINC000893400114   -0.1600
     29 C29       -14.8514   -2.0586   58.6759 C.3     1  ZINC000893400114    0.0500
     30 O30       -13.4476   -1.8633   58.9210 O.3     1  ZINC000893400114   -0.3800
     31 H31        -8.6186    1.0356   55.4328 H       1  ZINC000893400114    0.4000
     32 H32        -9.6022   -1.1866   53.2961 H       1  ZINC000893400114    0.1000
     33 H33       -10.3566   -0.2665   51.9517 H       1  ZINC000893400114    0.1000
     34 H34        -7.4368   -0.4456   52.7525 H       1  ZINC000893400114    0.0700
     35 H35        -8.1491   -0.2592   51.1222 H       1  ZINC000893400114    0.0800
     36 H36        -7.4739    3.2502   51.2371 H       1  ZINC000893400114    0.0900
     37 H37        -6.1029    3.1101   53.2809 H       1  ZINC000893400114    0.0800
     38 H38        -5.4270    1.5530   52.7414 H       1  ZINC000893400114    0.0900
     39 H39        -5.1306    4.2361   51.3146 H       1  ZINC000893400114    0.0500
     40 H40        -3.8577    3.3836   52.2212 H       1  ZINC000893400114    0.1000
     41 H41        -5.9139    3.2659   49.2293 H       1  ZINC000893400114    0.0500
     42 H42        -5.1880    1.7362   48.6801 H       1  ZINC000893400114    0.1000
     43 H43        -6.2474    0.5368   50.5571 H       1  ZINC000893400114    0.0900
     44 H44        -7.4823    1.4016   49.6086 H       1  ZINC000893400114    0.0700
     45 H45        -7.7522   -0.7086   57.7411 H       1  ZINC000893400114    0.0800
     46 H46        -8.1853    0.8491   56.9905 H       1  ZINC000893400114    0.0800
     47 H47        -8.0297    0.9341   59.5234 H       1  ZINC000893400114    0.1100
     48 H48        -9.6140    1.4287   58.8779 H       1  ZINC000893400114    0.0500
     49 H49       -11.2166   -1.6662   59.8609 H       1  ZINC000893400114    0.1300
     50 H50       -11.4743   -0.0891   59.0750 H       1  ZINC000893400114    0.0500
     51 H51       -12.3295   -0.9657   56.8784 H       1  ZINC000893400114    0.0800
     52 H52       -11.6001   -2.4532   56.2277 H       1  ZINC000893400114    0.1100
     53 H53       -13.8309   -3.1302   56.2598 H       1  ZINC000893400114    0.0800
     54 H54       -13.3258   -4.6006   57.1582 H       1  ZINC000893400114    0.0800
     55 H55       -15.8552   -3.5959   57.4778 H       1  ZINC000893400114    0.0800
     56 H56       -14.9565   -4.2374   58.8954 H       1  ZINC000893400114    0.0800
     57 H57       -15.2147   -1.3297   57.9515 H       1  ZINC000893400114    0.0600
     58 H58       -15.4118   -1.9792   59.6074 H       1  ZINC000893400114    0.0800
@<TRIPOS>BOND
     1     1     2    2
     2     2     3   am
     3     2    17   am
     4     3     4    1
     5     3    31    1
     6     4     5    1
     7     4    15    1
     8     4     6    1
     9     6     7    1
    10     6    32    1
    11     6    33    1
    12     7     8    1
    13     7    34    1
    14     7    35    1
    15     8     9    1
    16     8    15   am
    17     9    14    1
    18     9    10    1
    19     9    36    1
    20    10    11    1
    21    10    37    1
    22    10    38    1
    23    11    12    1
    24    11    39    1
    25    11    40    1
    26    12    13    1
    27    13    14    1
    28    13    41    1
    29    13    42    1
    30    14    43    1
    31    14    44    1
    32    15    16    2
    33    17    22    1
    34    17    18    1
    35    18    19    1
    36    18    45    1
    37    18    46    1
    38    19    20    1
    39    19    47    1
    40    19    48    1
    41    20    21    1
    42    21    22    1
    43    21    49    1
    44    21    50    1
    45    22    23    1
    46    22    24    1
    47    24    25    1
    48    24    51    1
    49    24    52    1
    50    25    26    1
    51    25    30    1
    52    25    27    1
    53    27    28    1
    54    27    53    1
    55    27    54    1
    56    28    29    1
    57    28    55    1
    58    28    56    1
    59    29    30    1
    60    29    57    1
    61    29    58    1
@<TRIPOS>SUBSTRUCTURE
     1 ZINC000893400114        1 TEMP              0 ****  ****    0 ROOT


##########                                Name:    ZINC001490207225
##########                DOCK_Rotatable_Bonds:                   7
##########                         Heavy_Atoms:                  24
##########                    Molecular_Weight:             334.378
##########                DOCK_Rotatable_Bonds:                   7
##########                       Formal_Charge:           -0.010001
##########                     HBond_Acceptors:                   9
##########                        HBond_Donors:                   3
##########                         Heavy_Atoms:                  24
##########                          Grid_Score:          -30.604351
##########                     Grid_vdw_energy:          -30.155668
##########                      Grid_es_energy:           -0.448682
##########           Internal_energy_repulsive:            6.238898

@<TRIPOS>MOLECULE
ZINC001490207225
 46 48 1 0 0
SMALL
USER_CHARGES


@<TRIPOS>ATOM
      1 C1         -3.0627    1.1465   49.1802 C.3     1  ZINC001490207225    0.0900
      2 N2         -3.9448    2.0676   49.9010 N.pl3   1  ZINC001490207225   -0.3600
      3 C3         -5.2870    2.0520   49.8729 C.2     1  ZINC001490207225    0.1300
      4 C4         -5.7294    3.0784   50.6832 C.2     1  ZINC001490207225   -0.3000
      5 C5         -7.1336    3.4375   50.9527 C.2     1  ZINC001490207225    0.6200
      6 O6         -7.5676    4.5124   50.5851 O.2     1  ZINC001490207225   -0.5400
      7 N7         -7.9363    2.5747   51.6066 N.am    1  ZINC001490207225   -0.6200
      8 C8         -9.3542    2.7770   51.9463 C.3     1  ZINC001490207225    0.1100
      9 C9         -9.5990    2.0162   53.2599 C.3     1  ZINC001490207225   -0.1100
     10 H10        -9.6513    2.6867   54.1178 H       1  ZINC001490207225    0.1000
     11 C11       -10.8734    1.1581   53.1159 C.3     1  ZINC001490207225    0.1000
     12 N12       -10.5164   -0.1489   53.7143 N.am    1  ZINC001490207225   -0.6200
     13 C13       -11.2835   -0.9401   54.4901 C.2     1  ZINC001490207225    0.5300
     14 O14       -12.4140   -0.6020   54.7706 O.2     1  ZINC001490207225   -0.5300
     15 C15       -10.7367   -2.2450   55.0089 C.3     1  ZINC001490207225    0.1200
     16 N16       -10.0363   -2.0124   56.2745 N.am    1  ZINC001490207225   -0.7400
     17 C17       -10.1162   -2.9218   57.2660 C.2     1  ZINC001490207225    0.7100
     18 N18        -9.4706   -2.7085   58.4296 N.am    1  ZINC001490207225   -0.8600
     19 O19       -10.7706   -3.9347   57.1106 O.2     1  ZINC001490207225   -0.5900
     20 C20        -9.1252   -0.3888   53.2666 C.3     1  ZINC001490207225    0.1100
     21 C21        -8.4245    1.0099   53.3739 C.3     1  ZINC001490207225   -0.0800
     22 C22        -7.6245    1.1545   54.6700 C.3     1  ZINC001490207225   -0.1300
     23 C23        -7.5681    1.2431   52.1149 C.3     1  ZINC001490207225    0.1000
     24 C24        -4.5843    3.7200   51.2061 C.2     1  ZINC001490207225    0.0700
     25 N25        -3.5306    3.1084   50.7397 N.2     1  ZINC001490207225   -0.2900
     26 H26        -2.8575    0.2768   49.8043 H       1  ZINC001490207225    0.0800
     27 H27        -3.5478    0.8257   48.2582 H       1  ZINC001490207225    0.0900
     28 H28        -2.1268    1.6517   48.9416 H       1  ZINC001490207225    0.1000
     29 H29        -5.9069    1.3631   49.3182 H       1  ZINC001490207225    0.1900
     30 H30        -9.5577    3.8388   52.0855 H       1  ZINC001490207225    0.0900
     31 H31        -9.9891    2.3743   51.1570 H       1  ZINC001490207225    0.0800
     32 H32       -11.7006    1.6122   53.6613 H       1  ZINC001490207225    0.0900
     33 H33       -11.1323    1.0362   52.0641 H       1  ZINC001490207225    0.0900
     34 H34       -11.5572   -2.9441   55.1709 H       1  ZINC001490207225    0.1000
     35 H35       -10.0416   -2.6629   54.2806 H       1  ZINC001490207225    0.1000
     36 H36        -9.5152   -1.2037   56.3989 H       1  ZINC001490207225    0.4100
     37 H37        -9.5272   -3.3637   59.1428 H       1  ZINC001490207225    0.4000
     38 H38        -8.9495   -1.9000   58.5541 H       1  ZINC001490207225    0.4200
     39 H39        -8.6320   -1.1032   53.9257 H       1  ZINC001490207225    0.0900
     40 H40        -9.1142   -0.7496   52.2380 H       1  ZINC001490207225    0.0800
     41 H41        -6.8423    0.3960   54.7006 H       1  ZINC001490207225    0.0700
     42 H42        -7.1717    2.1452   54.7091 H       1  ZINC001490207225    0.0600
     43 H43        -8.2896    1.0251   55.5238 H       1  ZINC001490207225    0.0600
     44 H44        -7.8016    0.4929   51.3595 H       1  ZINC001490207225    0.0800
     45 H45        -6.5092    1.2010   52.3697 H       1  ZINC001490207225    0.0900
     46 H46        -4.5819    4.5658   51.8777 H       1  ZINC001490207225    0.2000
@<TRIPOS>BOND
     1     1     2    1
     2     1    26    1
     3     1    27    1
     4     1    28    1
     5     2    25    1
     6     2     3    1
     7     3     4    2
     8     3    29    1
     9     4     5    1
    10     4    24    1
    11     5     6    2
    12     5     7   am
    13     7    23    1
    14     7     8    1
    15     8     9    1
    16     8    30    1
    17     8    31    1
    18     9    10    1
    19     9    21    1
    20     9    11    1
    21    11    12    1
    22    11    32    1
    23    11    33    1
    24    12    13   am
    25    12    20    1
    26    13    14    2
    27    13    15    1
    28    15    16    1
    29    15    34    1
    30    15    35    1
    31    16    17   am
    32    16    36    1
    33    17    18   am
    34    17    19    2
    35    18    37    1
    36    18    38    1
    37    20    21    1
    38    20    39    1
    39    20    40    1
    40    21    22    1
    41    21    23    1
    42    22    41    1
    43    22    42    1
    44    22    43    1
    45    23    44    1
    46    23    45    1
    47    24    25    2
    48    24    46    1
@<TRIPOS>SUBSTRUCTURE
     1 ZINC001490207225        1 TEMP              0 ****  ****    0 ROOT


##########                                Name:    ZINC001248546333
##########                DOCK_Rotatable_Bonds:                   6
##########                         Heavy_Atoms:                  27
##########                    Molecular_Weight:             378.397
##########                DOCK_Rotatable_Bonds:                   6
##########                       Formal_Charge:         3.94881e-07
##########                     HBond_Acceptors:                   8
##########                        HBond_Donors:                   1
##########                         Heavy_Atoms:                  27
##########                          Grid_Score:          -30.592422
##########                     Grid_vdw_energy:          -29.789543
##########                      Grid_es_energy:           -0.802879
##########           Internal_energy_repulsive:            9.477272

@<TRIPOS>MOLECULE
ZINC001248546333
 48 50 1 0 0
SMALL
USER_CHARGES


@<TRIPOS>ATOM
      1 C1         -4.6865    4.8386   52.0094 C.3     1  ZINC001248546333   -0.1200
      2 C2         -5.1411    3.4336   51.7085 C.ar    1  ZINC001248546333   -0.0800
      3 C3         -4.5024    2.6970   50.7273 C.ar    1  ZINC001248546333   -0.1200
      4 C4         -4.9136    1.4063   50.4449 C.ar    1  ZINC001248546333   -0.1100
      5 C5         -5.9642    0.8460   51.1416 C.ar    1  ZINC001248546333   -0.1100
      6 C6         -6.6125    1.5837   52.1330 C.ar    1  ZINC001248546333   -0.0600
      7 C7         -7.7389    0.9895   52.8835 C.2     1  ZINC001248546333   -0.0600
      8 C8         -8.7716    0.5610   52.1988 C.2     1  ZINC001248546333   -0.1700
      9 C9         -9.9911   -0.0479   52.8333 C.3     1  ZINC001248546333    0.1500
     10 N10        -9.7144   -0.3146   54.2521 N.am    1  ZINC001248546333   -0.6300
     11 C11       -10.0953   -1.4682   54.8357 C.2     1  ZINC001248546333    0.7200
     12 O12       -10.6803   -2.3136   54.1866 O.2     1  ZINC001248546333   -0.5800
     13 N13        -9.8277   -1.6848   56.1387 N.am    1  ZINC001248546333   -0.7500
     14 C14       -10.2417   -2.9388   56.7730 C.3     1  ZINC001248546333    0.2000
     15 C15       -11.5355   -2.7231   57.5150 C.2     1  ZINC001248546333    0.0700
     16 C16       -12.7805   -2.8278   56.9951 C.2     1  ZINC001248546333   -0.2000
     17 C17       -13.6972   -2.5507   58.0145 C.2     1  ZINC001248546333   -0.0200
     18 C18       -15.1980   -2.5538   57.8780 C.3     1  ZINC001248546333    0.5600
     19 F19       -15.6075   -3.7393   57.2583 F       1  ZINC001248546333   -0.1700
     20 F20       -15.7818   -2.4646   59.1462 F       1  ZINC001248546333   -0.1700
     21 F21       -15.5981   -1.4602   57.1026 F       1  ZINC001248546333   -0.1600
     22 N22       -13.0269   -2.2891   59.1071 N.2     1  ZINC001248546333   -0.2200
     23 N23       -11.6603   -2.3968   58.8185 N.pl3   1  ZINC001248546333   -0.3400
     24 C24       -10.5605   -2.1839   59.7627 C.3     1  ZINC001248546333    0.0900
     25 C25        -9.0046    0.7298   55.0107 C.3     1  ZINC001248546333    0.1300
     26 C26        -7.6212    0.9119   54.3767 C.3     1  ZINC001248546333   -0.1000
     27 C27        -6.1898    2.8828   52.4163 C.ar    1  ZINC001248546333   -0.1100
     28 H28        -3.9154    4.8139   52.7794 H       1  ZINC001248546333    0.0700
     29 H29        -4.2817    5.2913   51.1043 H       1  ZINC001248546333    0.0700
     30 H30        -5.5336    5.4268   52.3623 H       1  ZINC001248546333    0.0700
     31 H31        -3.6794    3.1311   50.1790 H       1  ZINC001248546333    0.1200
     32 H32        -4.4113    0.8366   49.6772 H       1  ZINC001248546333    0.1200
     33 H33        -6.2845   -0.1613   50.9200 H       1  ZINC001248546333    0.1200
     34 H34        -8.7450    0.6502   51.1228 H       1  ZINC001248546333    0.1200
     35 H35       -10.8292    0.6439   52.7494 H       1  ZINC001248546333    0.0800
     36 H36       -10.2366   -0.9821   52.3281 H       1  ZINC001248546333    0.0800
     37 H37        -9.3609   -1.0104   56.6566 H       1  ZINC001248546333    0.4000
     38 H38       -10.3842   -3.7027   56.0086 H       1  ZINC001248546333    0.1000
     39 H39        -9.4715   -3.2638   57.4724 H       1  ZINC001248546333    0.0900
     40 H40       -13.0232   -3.0803   55.9735 H       1  ZINC001248546333    0.1700
     41 H41       -10.3130   -3.1265   60.2509 H       1  ZINC001248546333    0.0900
     42 H42        -9.6876   -1.8124   59.2259 H       1  ZINC001248546333    0.1000
     43 H43       -10.8628   -1.4541   60.5138 H       1  ZINC001248546333    0.1000
     44 H44        -9.5626    1.6648   54.9612 H       1  ZINC001248546333    0.0700
     45 H45        -8.8945    0.4200   56.0499 H       1  ZINC001248546333    0.1000
     46 H46        -6.9854    0.0699   54.6507 H       1  ZINC001248546333    0.0800
     47 H47        -7.1733    1.8338   54.7474 H       1  ZINC001248546333    0.0900
     48 H48        -6.6874    3.4590   53.1824 H       1  ZINC001248546333    0.1200
@<TRIPOS>BOND
     1     1     2    1
     2     1    28    1
     3     1    29    1
     4     1    30    1
     5     2    27   ar
     6     2     3   ar
     7     3     4   ar
     8     3    31    1
     9     4     5   ar
    10     4    32    1
    11     5     6   ar
    12     5    33    1
    13     6     7    1
    14     6    27   ar
    15     7    26    1
    16     7     8    2
    17     8     9    1
    18     8    34    1
    19     9    10    1
    20     9    35    1
    21     9    36    1
    22    10    11   am
    23    10    25    1
    24    11    12    2
    25    11    13   am
    26    13    14    1
    27    13    37    1
    28    14    15    1
    29    14    38    1
    30    14    39    1
    31    15    23    1
    32    15    16    2
    33    16    17    1
    34    16    40    1
    35    17    18    1
    36    17    22    2
    37    18    19    1
    38    18    20    1
    39    18    21    1
    40    22    23    1
    41    23    24    1
    42    24    41    1
    43    24    42    1
    44    24    43    1
    45    25    26    1
    46    25    44    1
    47    25    45    1
    48    26    46    1
    49    26    47    1
    50    27    48    1
@<TRIPOS>SUBSTRUCTURE
     1 ZINC001248546333        1 TEMP              0 ****  ****    0 ROOT


##########                                Name:    ZINC000123469372
##########                DOCK_Rotatable_Bonds:                   7
##########                         Heavy_Atoms:                  25
##########                    Molecular_Weight:             341.382
##########                DOCK_Rotatable_Bonds:                   7
##########                       Formal_Charge:          -0.0300001
##########                     HBond_Acceptors:                   5
##########                        HBond_Donors:                   2
##########                         Heavy_Atoms:                  25
##########                          Grid_Score:          -30.574650
##########                     Grid_vdw_energy:          -30.307240
##########                      Grid_es_energy:           -0.267410
##########           Internal_energy_repulsive:           12.769839

@<TRIPOS>MOLECULE
ZINC000123469372
 45 47 1 0 0
SMALL
USER_CHARGES


@<TRIPOS>ATOM
      1 C1         -9.7249    2.1641   52.0611 C.3     1  ZINC000123469372   -0.1700
      2 C2         -8.6111    1.1534   52.3423 C.3     1  ZINC000123469372    0.1500
      3 H3         -8.5884    0.4074   51.5480 H       1  ZINC000123469372    0.0900
      4 C4         -7.2657    1.8798   52.3984 C.3     1  ZINC000123469372   -0.1600
      5 C5         -6.8572    2.3062   50.9870 C.3     1  ZINC000123469372    0.1500
      6 H6         -7.4457    3.1723   50.6845 H       1  ZINC000123469372    0.1100
      7 O7         -7.0920    1.2295   50.0772 O.3     1  ZINC000123469372   -0.5500
      8 C8         -5.3933    2.6643   50.9743 C.ar    1  ZINC000123469372   -0.1200
      9 C9         -4.8868    3.5360   51.9200 C.ar    1  ZINC000123469372   -0.1100
     10 C10        -3.5441    3.8645   51.9084 C.ar    1  ZINC000123469372   -0.1200
     11 C11        -2.7078    3.3209   50.9513 C.ar    1  ZINC000123469372   -0.1200
     12 C12        -3.2141    2.4484   50.0062 C.ar    1  ZINC000123469372   -0.1200
     13 C13        -4.5560    2.1166   50.0204 C.ar    1  ZINC000123469372   -0.1100
     14 N14        -8.8634    0.4931   53.6255 N.am    1  ZINC000123469372   -0.7100
     15 C15        -9.6624   -0.5909   53.6798 C.2     1  ZINC000123469372    0.5700
     16 O16       -10.1755   -1.0205   52.6630 O.2     1  ZINC000123469372   -0.5400
     17 C17        -9.9129   -1.2512   54.9604 C.2     1  ZINC000123469372   -0.2200
     18 C18        -9.4516   -0.7025   56.1113 C.2     1  ZINC000123469372    0.0000
     19 C19        -9.7147   -1.4191   57.3689 C.ar    1  ZINC000123469372   -0.1200
     20 C20        -9.5808   -0.7909   58.6063 C.ar    1  ZINC000123469372   -0.0900
     21 C21        -9.8379   -1.5031   59.7622 C.ar    1  ZINC000123469372    0.0700
     22 F22        -9.7107   -0.9014   60.9651 F       1  ZINC000123469372   -0.1400
     23 C23       -10.2265   -2.8329   59.6930 C.ar    1  ZINC000123469372   -0.1100
     24 C24       -10.3616   -3.4643   58.4701 C.ar    1  ZINC000123469372   -0.1200
     25 C25       -10.1088   -2.7670   57.3029 C.ar    1  ZINC000123469372    0.1300
     26 O26       -10.2318   -3.3583   56.0886 O.3     1  ZINC000123469372   -0.3000
     27 C27       -10.6900   -2.5410   55.0073 C.3     1  ZINC000123469372    0.1100
     28 H28        -9.5372    2.6554   51.1064 H       1  ZINC000123469372    0.0700
     29 H29       -10.6834    1.6466   52.0212 H       1  ZINC000123469372    0.0600
     30 H30        -9.7476    2.9102   52.8554 H       1  ZINC000123469372    0.0600
     31 H31        -7.3549    2.7615   53.0328 H       1  ZINC000123469372    0.0900
     32 H32        -6.5089    1.2115   52.8093 H       1  ZINC000123469372    0.0800
     33 H33        -6.5129    0.4669   50.2126 H       1  ZINC000123469372    0.3700
     34 H34        -5.5402    3.9608   52.6677 H       1  ZINC000123469372    0.1200
     35 H35        -3.1485    4.5462   52.6468 H       1  ZINC000123469372    0.1200
     36 H36        -1.6589    3.5781   50.9418 H       1  ZINC000123469372    0.1200
     37 H37        -2.5608    2.0239   49.2582 H       1  ZINC000123469372    0.1200
     38 H38        -4.9517    1.4349   49.2820 H       1  ZINC000123469372    0.1200
     39 H39        -8.4556    0.8361   54.4359 H       1  ZINC000123469372    0.4000
     40 H40        -8.9080    0.2308   56.1050 H       1  ZINC000123469372    0.1500
     41 H41        -9.2780    0.2443   58.6610 H       1  ZINC000123469372    0.1500
     42 H42       -10.4250   -3.3804   60.6026 H       1  ZINC000123469372    0.1500
     43 H43       -10.6640   -4.5001   58.4266 H       1  ZINC000123469372    0.1500
     44 H44       -11.7500   -2.3258   55.1423 H       1  ZINC000123469372    0.0800
     45 H45       -10.5508   -3.0755   54.0675 H       1  ZINC000123469372    0.1100
@<TRIPOS>BOND
     1     1     2    1
     2     1    28    1
     3     1    29    1
     4     1    30    1
     5     2     3    1
     6     2     4    1
     7     2    14    1
     8     4     5    1
     9     4    31    1
    10     4    32    1
    11     5     6    1
    12     5     7    1
    13     5     8    1
    14     7    33    1
    15     8    13   ar
    16     8     9   ar
    17     9    10   ar
    18     9    34    1
    19    10    11   ar
    20    10    35    1
    21    11    12   ar
    22    11    36    1
    23    12    13   ar
    24    12    37    1
    25    13    38    1
    26    14    15   am
    27    14    39    1
    28    15    16    2
    29    15    17    1
    30    17    27    1
    31    17    18    2
    32    18    19    1
    33    18    40    1
    34    19    25   ar
    35    19    20   ar
    36    20    21   ar
    37    20    41    1
    38    21    22    1
    39    21    23   ar
    40    23    24   ar
    41    23    42    1
    42    24    25   ar
    43    24    43    1
    44    25    26    1
    45    26    27    1
    46    27    44    1
    47    27    45    1
@<TRIPOS>SUBSTRUCTURE
     1 ZINC000123469372        1 TEMP              0 ****  ****    0 ROOT


##########                                Name:    ZINC001053433946
##########                DOCK_Rotatable_Bonds:                   6
##########                         Heavy_Atoms:                  24
##########                    Molecular_Weight:             337.419
##########                DOCK_Rotatable_Bonds:                   6
##########                       Formal_Charge:               -0.02
##########                     HBond_Acceptors:                   7
##########                        HBond_Donors:                   2
##########                         Heavy_Atoms:                  24
##########                          Grid_Score:          -30.552280
##########                     Grid_vdw_energy:          -29.631516
##########                      Grid_es_energy:           -0.920765
##########           Internal_energy_repulsive:           12.321469

@<TRIPOS>MOLECULE
ZINC001053433946
 51 54 1 0 0
SMALL
USER_CHARGES


@<TRIPOS>ATOM
      1 N1        -15.8523   -3.1912   58.1015 N.am    1  ZINC001053433946   -0.8300
      2 C2        -15.7253   -2.1539   58.9525 C.2     1  ZINC001053433946    0.5600
      3 O3        -16.4544   -1.1904   58.8473 O.2     1  ZINC001053433946   -0.5500
      4 C4        -14.6773   -2.1911   60.0348 C.3     1  ZINC001053433946   -0.1600
      5 H5        -14.6971   -3.0705   60.6784 H       1  ZINC001053433946    0.1400
      6 C6        -14.2699   -0.8600   60.6698 C.3     1  ZINC001053433946   -0.1300
      7 C7        -13.3115   -1.5790   59.7170 C.3     1  ZINC001053433946   -0.1700
      8 H8        -12.4329   -2.0554   60.1518 H       1  ZINC001053433946    0.1400
      9 C9        -13.1170   -0.9842   58.3461 C.2     1  ZINC001053433946    0.5400
     10 O10       -13.4293    0.1686   58.1352 O.2     1  ZINC001053433946   -0.5200
     11 N11       -12.5958   -1.7335   57.3543 N.am    1  ZINC001053433946   -0.6100
     12 C12       -12.2089   -3.1342   57.5842 C.3     1  ZINC001053433946    0.0700
     13 C13       -10.7647   -3.3296   57.1112 C.3     1  ZINC001053433946    0.0500
     14 O14       -10.6474   -2.8929   55.7534 O.3     1  ZINC001053433946   -0.3400
     15 C15       -10.9751   -1.5202   55.5563 C.3     1  ZINC001053433946    0.0800
     16 C16        -9.9128   -0.5484   56.0872 C.3     1  ZINC001053433946   -0.0100
     17 N17        -9.3213   -0.6159   54.7316 N.3     1  ZINC001053433946   -0.4700
     18 C18        -8.9104    0.7167   54.2696 C.3     1  ZINC001053433946    0.0200
     19 C19        -7.7282    0.5809   53.3079 C.3     1  ZINC001053433946   -0.1200
     20 H20        -6.9997   -0.1159   53.7223 H       1  ZINC001053433946    0.0800
     21 C21        -8.2252    0.0582   51.9565 C.3     1  ZINC001053433946   -0.1200
     22 C22        -7.0470    0.0004   50.9793 C.3     1  ZINC001053433946   -0.1600
     23 C23        -6.4175    1.3914   50.8683 C.3     1  ZINC001053433946    0.0600
     24 O24        -6.0051    1.8310   52.1641 O.3     1  ZINC001053433946   -0.3800
     25 C25        -7.0713    1.9492   53.1081 C.3     1  ZINC001053433946    0.0700
     26 C26       -10.6310   -0.9965   54.1556 C.3     1  ZINC001053433946    0.0200
     27 C27       -12.4011   -1.1775   56.0037 C.3     1  ZINC001053433946    0.1000
     28 H28       -16.5262   -3.1666   57.4042 H       1  ZINC001053433946    0.4000
     29 H29       -15.2674   -3.9606   58.1838 H       1  ZINC001053433946    0.4000
     30 H30       -14.7600    0.0426   60.3047 H       1  ZINC001053433946    0.1100
     31 H31       -14.0214   -0.8639   61.7311 H       1  ZINC001053433946    0.1200
     32 H32       -12.2793   -3.3630   58.6477 H       1  ZINC001053433946    0.1000
     33 H33       -12.8703   -3.7931   57.0217 H       1  ZINC001053433946    0.0800
     34 H34       -10.0935   -2.7451   57.7405 H       1  ZINC001053433946    0.0600
     35 H35       -10.4996   -4.3848   57.1780 H       1  ZINC001053433946    0.1100
     36 H36       -10.3064    0.4343   56.3466 H       1  ZINC001053433946    0.0800
     37 H37        -9.2782   -0.9731   56.8652 H       1  ZINC001053433946    0.0900
     38 H38        -9.7436    1.1961   53.7557 H       1  ZINC001053433946    0.0500
     39 H39        -8.6145    1.3227   55.1259 H       1  ZINC001053433946    0.0800
     40 H40        -8.6432   -0.9404   52.0832 H       1  ZINC001053433946    0.0700
     41 H41        -8.9907    0.7285   51.5655 H       1  ZINC001053433946    0.0700
     42 H42        -6.3039   -0.7076   51.3461 H       1  ZINC001053433946    0.0700
     43 H43        -7.4021   -0.3180   49.9991 H       1  ZINC001053433946    0.0700
     44 H44        -5.5522    1.3470   50.2070 H       1  ZINC001053433946    0.0900
     45 H45        -7.1492    2.0904   50.4632 H       1  ZINC001053433946    0.0500
     46 H46        -7.8123    2.6553   52.7332 H       1  ZINC001053433946    0.0500
     47 H47        -6.6768    2.3069   54.0592 H       1  ZINC001053433946    0.1000
     48 H48       -10.5677   -1.7773   53.3977 H       1  ZINC001053433946    0.1000
     49 H49       -11.2375   -0.1464   53.8430 H       1  ZINC001053433946    0.0900
     50 H50       -13.1198   -1.6158   55.3113 H       1  ZINC001053433946    0.0800
     51 H51       -12.5284   -0.0952   56.0314 H       1  ZINC001053433946    0.1000
@<TRIPOS>BOND
     1     1     2   am
     2     1    28    1
     3     1    29    1
     4     2     3    2
     5     2     4    1
     6     4     5    1
     7     4     7    1
     8     4     6    1
     9     6     7    1
    10     6    30    1
    11     6    31    1
    12     7     8    1
    13     7     9    1
    14     9    10    2
    15     9    11   am
    16    11    27    1
    17    11    12    1
    18    12    13    1
    19    12    32    1
    20    12    33    1
    21    13    14    1
    22    13    34    1
    23    13    35    1
    24    14    15    1
    25    15    26    1
    26    15    16    1
    27    15    27    1
    28    16    17    1
    29    16    36    1
    30    16    37    1
    31    17    18    1
    32    17    26    1
    33    18    19    1
    34    18    38    1
    35    18    39    1
    36    19    20    1
    37    19    25    1
    38    19    21    1
    39    21    22    1
    40    21    40    1
    41    21    41    1
    42    22    23    1
    43    22    42    1
    44    22    43    1
    45    23    24    1
    46    23    44    1
    47    23    45    1
    48    24    25    1
    49    25    46    1
    50    25    47    1
    51    26    48    1
    52    26    49    1
    53    27    50    1
    54    27    51    1
@<TRIPOS>SUBSTRUCTURE
     1 ZINC001053433946        1 TEMP              0 ****  ****    0 ROOT


##########                                Name:    ZINC001060733018
##########                DOCK_Rotatable_Bonds:                   7
##########                         Heavy_Atoms:                  24
##########                    Molecular_Weight:             342.429
##########                DOCK_Rotatable_Bonds:                   7
##########                       Formal_Charge:           0.0200001
##########                     HBond_Acceptors:                   6
##########                        HBond_Donors:                   2
##########                         Heavy_Atoms:                  24
##########                          Grid_Score:          -30.516575
##########                     Grid_vdw_energy:          -28.984455
##########                      Grid_es_energy:           -1.532119
##########           Internal_energy_repulsive:            6.647195

@<TRIPOS>MOLECULE
ZINC001060733018
 52 54 1 0 0
SMALL
USER_CHARGES


@<TRIPOS>ATOM
      1 O1        -10.8912    0.8058   61.8287 O.2     1  ZINC001060733018   -0.5000
      2 C2         -9.8267    0.3515   62.1909 C.2     1  ZINC001060733018    0.4700
      3 N3         -9.2047   -0.5838   61.4460 N.am    1  ZINC001060733018   -0.7100
      4 C4         -9.8166   -1.0547   60.2010 C.3     1  ZINC001060733018    0.1200
      5 C5         -9.4812   -0.0825   59.0683 C.3     1  ZINC001060733018   -0.1000
      6 H6         -9.8166    0.9190   59.3378 H       1  ZINC001060733018    0.0800
      7 C7         -7.9685   -0.0692   58.8388 C.3     1  ZINC001060733018   -0.1100
      8 C8         -7.6331    0.9032   57.7061 C.3     1  ZINC001060733018   -0.1300
      9 C9         -8.3395    0.4564   56.4245 C.3     1  ZINC001060733018    0.1400
     10 H10        -8.0040   -0.5452   56.1550 H       1  ZINC001060733018    0.0900
     11 N11        -8.0182    1.3873   55.3399 N.am    1  ZINC001060733018   -0.7300
     12 C12        -8.0338    0.9630   54.0608 C.2     1  ZINC001060733018    0.5200
     13 O13        -8.3150   -0.1893   53.8075 O.2     1  ZINC001060733018   -0.5400
     14 C14        -7.7016    1.9202   52.9453 C.3     1  ZINC001060733018   -0.1000
     15 H15        -7.3069    2.8452   53.3657 H       1  ZINC001060733018    0.1000
     16 C16        -8.9663    2.2245   52.1409 C.3     1  ZINC001060733018   -0.1100
     17 C17        -8.6538    3.2524   51.0524 C.3     1  ZINC001060733018   -0.1200
     18 C18        -7.6347    2.6635   50.0720 C.3     1  ZINC001060733018   -0.0800
     19 C19        -6.3878    2.2350   50.8513 C.3     1  ZINC001060733018   -0.1300
     20 C20        -5.2589    3.2544   51.0009 C.3     1  ZINC001060733018   -0.1700
     21 C21        -5.0878    2.0527   50.0691 C.3     1  ZINC001060733018   -0.1700
     22 C22        -6.6519    1.2884   52.0259 C.3     1  ZINC001060733018   -0.0600
     23 C23        -9.8521    0.4429   56.6540 C.3     1  ZINC001060733018   -0.1200
     24 C24       -10.1875   -0.5293   57.7868 C.3     1  ZINC001060733018   -0.1100
     25 C25        -9.1964    0.8372   63.4706 C.3     1  ZINC001060733018    0.2600
     26 F26       -10.1903    1.3335   64.3209 F       1  ZINC001060733018   -0.1700
     27 F27        -8.5345   -0.2245   64.0968 F       1  ZINC001060733018   -0.1900
     28 H28        -8.3520   -0.9452   61.7343 H       1  ZINC001060733018    0.4100
     29 H29        -9.4293   -2.0441   59.9573 H       1  ZINC001060733018    0.0800
     30 H30       -10.8982   -1.1085   60.3253 H       1  ZINC001060733018    0.0800
     31 H31        -7.4653    0.2492   59.7517 H       1  ZINC001060733018    0.0700
     32 H32        -7.6331   -1.0706   58.5693 H       1  ZINC001060733018    0.0700
     33 H33        -6.5556    0.9126   57.5425 H       1  ZINC001060733018    0.0700
     34 H34        -7.9686    1.9045   57.9756 H       1  ZINC001060733018    0.0600
     35 H35        -7.7945    2.3092   55.5424 H       1  ZINC001060733018    0.4000
     36 H36        -9.3313    1.3072   51.6789 H       1  ZINC001060733018    0.0700
     37 H37        -9.7314    2.6244   52.8063 H       1  ZINC001060733018    0.0700
     38 H38        -9.5692    3.5045   50.5171 H       1  ZINC001060733018    0.0700
     39 H39        -8.2408    4.1516   51.5094 H       1  ZINC001060733018    0.0700
     40 H40        -8.0679    1.7975   49.5715 H       1  ZINC001060733018    0.0700
     41 H41        -7.3622    3.4163   49.3325 H       1  ZINC001060733018    0.0700
     42 H42        -5.3994    4.2324   50.5405 H       1  ZINC001060733018    0.0900
     43 H43        -4.6978    3.2507   51.9354 H       1  ZINC001060733018    0.0900
     44 H44        -4.4141    1.2584   50.3905 H       1  ZINC001060733018    0.0900
     45 H45        -5.1158    2.2397   48.9956 H       1  ZINC001060733018    0.0900
     46 H46        -5.7278    1.1295   52.5817 H       1  ZINC001060733018    0.0700
     47 H47        -7.0225    0.3347   51.6500 H       1  ZINC001060733018    0.0800
     48 H48       -10.3553    0.1247   55.7410 H       1  ZINC001060733018    0.0700
     49 H49       -10.1876    1.4444   56.9235 H       1  ZINC001060733018    0.0700
     50 H50        -9.8521   -1.5308   57.5172 H       1  ZINC001060733018    0.0700
     51 H51       -11.2651   -0.5389   57.9502 H       1  ZINC001060733018    0.0700
     52 H52        -8.4817    1.6290   63.2460 H       1  ZINC001060733018    0.1400
@<TRIPOS>BOND
     1     1     2    2
     2     2     3   am
     3     2    25    1
     4     3     4    1
     5     3    28    1
     6     4     5    1
     7     4    29    1
     8     4    30    1
     9     5     6    1
    10     5    24    1
    11     5     7    1
    12     7     8    1
    13     7    31    1
    14     7    32    1
    15     8     9    1
    16     8    33    1
    17     8    34    1
    18     9    10    1
    19     9    11    1
    20     9    23    1
    21    11    12   am
    22    11    35    1
    23    12    13    2
    24    12    14    1
    25    14    15    1
    26    14    22    1
    27    14    16    1
    28    16    17    1
    29    16    36    1
    30    16    37    1
    31    17    18    1
    32    17    38    1
    33    17    39    1
    34    18    19    1
    35    18    40    1
    36    18    41    1
    37    19    21    1
    38    19    20    1
    39    19    22    1
    40    20    21    1
    41    20    42    1
    42    20    43    1
    43    21    44    1
    44    21    45    1
    45    22    46    1
    46    22    47    1
    47    23    24    1
    48    23    48    1
    49    23    49    1
    50    24    50    1
    51    24    51    1
    52    25    26    1
    53    25    27    1
    54    25    52    1
@<TRIPOS>SUBSTRUCTURE
     1 ZINC001060733018        1 TEMP              0 ****  ****    0 ROOT


##########                                Name:    ZINC000443394081
##########                DOCK_Rotatable_Bonds:                   8
##########                         Heavy_Atoms:                  27
##########                    Molecular_Weight:             389.878
##########                DOCK_Rotatable_Bonds:                   8
##########                       Formal_Charge:          -0.0300003
##########                     HBond_Acceptors:                   6
##########                        HBond_Donors:                   1
##########                         Heavy_Atoms:                  27
##########                          Grid_Score:          -30.508980
##########                     Grid_vdw_energy:          -30.776161
##########                      Grid_es_energy:            0.267181
##########           Internal_energy_repulsive:           35.908566

@<TRIPOS>MOLECULE
ZINC000443394081
 51 53 1 0 0
SMALL
USER_CHARGES


@<TRIPOS>ATOM
      1 C1         -9.5912    0.4232   58.5689 C.3     1  ZINC000443394081    0.0200
      2 O2         -9.1315   -0.6918   57.8022 O.3     1  ZINC000443394081   -0.3000
      3 C3         -9.4598   -0.7111   56.4826 C.ar    1  ZINC000443394081    0.1000
      4 C4         -9.1161    0.3513   55.6698 C.ar    1  ZINC000443394081   -0.1200
      5 C5         -9.4546    0.3279   54.3139 C.ar    1  ZINC000443394081   -0.1300
      6 C6         -9.0893    1.4605   53.4408 C.2     1  ZINC000443394081    0.5700
      7 O7         -9.7716    2.4668   53.4328 O.2     1  ZINC000443394081   -0.4900
      8 N8         -7.9993    1.3793   52.6524 N.am    1  ZINC000443394081   -0.6100
      9 C9         -7.0873    0.2244   52.5635 C.3     1  ZINC000443394081    0.0900
     10 C10        -6.4313    0.3438   51.1652 C.3     1  ZINC000443394081   -0.1300
     11 C11        -6.2663    1.8805   51.0288 C.3     1  ZINC000443394081   -0.1000
     12 H12        -5.3612    2.2176   51.5339 H       1  ZINC000443394081    0.0900
     13 C13        -6.2478    2.2942   49.5559 C.3     1  ZINC000443394081   -0.1500
     14 C14        -7.5263    2.4253   51.7337 C.3     1  ZINC000443394081    0.1400
     15 H15        -7.2758    3.3227   52.2994 H       1  ZINC000443394081    0.0800
     16 C16        -8.6042    2.7477   50.6970 C.3     1  ZINC000443394081    0.0600
     17 O17        -8.2801    3.9738   50.0383 O.3     1  ZINC000443394081   -0.5400
     18 C18       -10.1389   -0.7697   53.7870 C.ar    1  ZINC000443394081   -0.1000
     19 C19       -10.4794   -1.8265   54.6036 C.ar    1  ZINC000443394081   -0.1800
     20 C20       -10.1384   -1.8061   55.9488 C.ar    1  ZINC000443394081    0.1300
     21 O21       -10.4760   -2.8497   56.7494 O.3     1  ZINC000443394081   -0.3000
     22 C22       -11.8590   -3.2058   56.8022 C.3     1  ZINC000443394081    0.1000
     23 C23       -12.5026   -2.5451   57.9940 C.ar    1  ZINC000443394081   -0.0800
     24 C24       -11.7886   -2.3888   59.1669 C.ar    1  ZINC000443394081   -0.0800
     25 C25       -12.3789   -1.7827   60.2604 C.ar    1  ZINC000443394081   -0.1100
     26 C26       -13.6835   -1.3331   60.1815 C.ar    1  ZINC000443394081   -0.1000
     27 C27       -14.3988   -1.4889   59.0088 C.ar    1  ZINC000443394081   -0.1100
     28 C28       -13.8067   -2.0896   57.9124 C.ar    1  ZINC000443394081   -0.0300
     29 Cl29      -14.7042   -2.2856   56.4395 Cl      1  ZINC000443394081   -0.0700
     30 H30        -9.2612    0.3145   59.6020 H       1  ZINC000443394081    0.1000
     31 H31        -9.1828    1.3438   58.1520 H       1  ZINC000443394081    0.0600
     32 H32       -10.6800    0.4617   58.5373 H       1  ZINC000443394081    0.0600
     33 H33        -8.5873    1.1983   56.0811 H       1  ZINC000443394081    0.1500
     34 H34        -6.3287    0.2791   53.3443 H       1  ZINC000443394081    0.0700
     35 H35        -7.6469   -0.7077   52.6416 H       1  ZINC000443394081    0.0800
     36 H36        -5.4631   -0.1565   51.1439 H       1  ZINC000443394081    0.0900
     37 H37        -7.0894   -0.0488   50.3901 H       1  ZINC000443394081    0.0800
     38 H38        -7.1733    1.9745   49.0771 H       1  ZINC000443394081    0.0600
     39 H39        -6.1573    3.3782   49.4841 H       1  ZINC000443394081    0.0600
     40 H40        -5.3998    1.8250   49.0572 H       1  ZINC000443394081    0.0600
     41 H41        -8.6547    1.9434   49.9631 H       1  ZINC000443394081    0.0600
     42 H42        -9.5689    2.8466   51.1946 H       1  ZINC000443394081    0.0400
     43 H43        -8.9033    4.2230   49.3422 H       1  ZINC000443394081    0.3700
     44 H44       -10.4016   -0.7901   52.7396 H       1  ZINC000443394081    0.1400
     45 H45       -11.0089   -2.6744   54.1949 H       1  ZINC000443394081    0.1400
     46 H46       -12.3550   -2.8728   55.8905 H       1  ZINC000443394081    0.0800
     47 H47       -11.9524   -4.2880   56.8923 H       1  ZINC000443394081    0.0800
     48 H48       -10.7693   -2.7405   59.2294 H       1  ZINC000443394081    0.1400
     49 H49       -11.8205   -1.6608   61.1768 H       1  ZINC000443394081    0.1300
     50 H50       -14.1444   -0.8605   61.0362 H       1  ZINC000443394081    0.1300
     51 H51       -15.4182   -1.1376   58.9472 H       1  ZINC000443394081    0.1400
@<TRIPOS>BOND
     1     1     2    1
     2     1    30    1
     3     1    31    1
     4     1    32    1
     5     2     3    1
     6     3    20   ar
     7     3     4   ar
     8     4     5   ar
     9     4    33    1
    10     5     6    1
    11     5    18   ar
    12     6     7    2
    13     6     8   am
    14     8    14    1
    15     8     9    1
    16     9    10    1
    17     9    34    1
    18     9    35    1
    19    10    11    1
    20    10    36    1
    21    10    37    1
    22    11    12    1
    23    11    13    1
    24    11    14    1
    25    13    38    1
    26    13    39    1
    27    13    40    1
    28    14    15    1
    29    14    16    1
    30    16    17    1
    31    16    41    1
    32    16    42    1
    33    17    43    1
    34    18    19   ar
    35    18    44    1
    36    19    20   ar
    37    19    45    1
    38    20    21    1
    39    21    22    1
    40    22    23    1
    41    22    46    1
    42    22    47    1
    43    23    28   ar
    44    23    24   ar
    45    24    25   ar
    46    24    48    1
    47    25    26   ar
    48    25    49    1
    49    26    27   ar
    50    26    50    1
    51    27    28   ar
    52    27    51    1
    53    28    29    1
@<TRIPOS>SUBSTRUCTURE
     1 ZINC000443394081        1 TEMP              0 ****  ****    0 ROOT


##########                                Name:    ZINC000274225049
##########                DOCK_Rotatable_Bonds:                   6
##########                         Heavy_Atoms:                  25
##########                    Molecular_Weight:             380.895
##########                DOCK_Rotatable_Bonds:                   6
##########                       Formal_Charge:           0.0200006
##########                     HBond_Acceptors:                   7
##########                        HBond_Donors:                   2
##########                         Heavy_Atoms:                  25
##########                          Grid_Score:          -30.484554
##########                     Grid_vdw_energy:          -26.450344
##########                      Grid_es_energy:           -4.034211
##########           Internal_energy_repulsive:           15.861954

@<TRIPOS>MOLECULE
ZINC000274225049
 46 48 1 0 0
SMALL
USER_CHARGES


@<TRIPOS>ATOM
      1 C1         -7.3085    2.5205   58.6778 C.3     1  ZINC000274225049   -0.1600
      2 C2         -8.4536    2.0857   59.5946 C.3     1  ZINC000274225049    0.2000
      3 H3         -9.3385    2.6849   59.3798 H       1  ZINC000274225049    0.1100
      4 N4         -8.0604    2.2791   60.9925 N.am    1  ZINC000274225049   -0.7400
      5 C5         -8.9458    2.0419   61.9806 C.2     1  ZINC000274225049    0.7100
      6 O6        -10.0704    1.6660   61.7118 O.2     1  ZINC000274225049   -0.5800
      7 N7         -8.5845    2.2214   63.2665 N.am    1  ZINC000274225049   -0.7500
      8 C8         -9.5463    1.9619   64.3406 C.3     1  ZINC000274225049    0.1500
      9 C9         -8.7930    1.6543   65.6364 C.3     1  ZINC000274225049   -0.1000
     10 H10        -9.4926    1.3288   66.4063 H       1  ZINC000274225049    0.1000
     11 C11        -8.0301    2.9033   66.1115 C.3     1  ZINC000274225049   -0.1100
     12 C12        -7.0251    2.4834   67.2027 C.3     1  ZINC000274225049   -0.5900
     13 S13        -6.6125    0.7418   66.8250 S.o2    1  ZINC000274225049    2.3900
     14 O14        -5.2628    0.6617   66.3879 O.2     1  ZINC000274225049   -0.9300
     15 O15        -7.0635   -0.0896   67.8856 O.2     1  ZINC000274225049   -0.9300
     16 C16        -7.7306    0.5534   65.3846 C.3     1  ZINC000274225049   -0.5900
     17 C17        -8.7627    0.6301   59.3563 C.ar    1  ZINC000274225049   -0.0700
     18 C18        -9.6658    0.2562   58.3470 C.ar    1  ZINC000274225049   -0.0300
     19 C19       -10.2985    1.2181   57.5409 C.ar    1  ZINC000274225049   -0.1100
     20 C20       -11.1673    0.8188   56.5725 C.ar    1  ZINC000274225049   -0.1100
     21 C21       -11.4408   -0.5322   56.3664 C.ar    1  ZINC000274225049   -0.1100
     22 C22       -10.8469   -1.4915   57.1276 C.ar    1  ZINC000274225049   -0.1000
     23 C23        -9.9439   -1.1177   58.1373 C.ar    1  ZINC000274225049   -0.0400
     24 C24        -9.3105   -2.0799   58.9435 C.ar    1  ZINC000274225049   -0.0300
     25 Cl25       -9.6346   -3.7687   58.7050 Cl      1  ZINC000274225049   -0.0600
     26 C26        -8.4405   -1.6795   59.9126 C.ar    1  ZINC000274225049   -0.1000
     27 C27        -8.1640   -0.3292   60.1145 C.ar    1  ZINC000274225049   -0.1000
     28 H28        -7.0850    3.5734   58.8500 H       1  ZINC000274225049    0.0700
     29 H29        -6.4236    1.9214   58.8925 H       1  ZINC000274225049    0.0700
     30 H30        -7.6011    2.3767   57.6377 H       1  ZINC000274225049    0.0800
     31 H31        -7.1628    2.5779   61.2069 H       1  ZINC000274225049    0.4000
     32 H32        -7.6876    2.5224   63.4809 H       1  ZINC000274225049    0.4000
     33 H33       -10.1749    2.8405   64.4856 H       1  ZINC000274225049    0.0800
     34 H34       -10.1699    1.1093   64.0718 H       1  ZINC000274225049    0.0800
     35 H35        -7.4952    3.3474   65.2721 H       1  ZINC000274225049    0.0900
     36 H36        -8.7333    3.6287   66.5206 H       1  ZINC000274225049    0.0900
     37 H37        -6.1304    3.1038   67.1521 H       1  ZINC000274225049    0.1400
     38 H38        -7.4836    2.5585   68.1886 H       1  ZINC000274225049    0.1400
     39 H39        -8.1901   -0.4350   65.3781 H       1  ZINC000274225049    0.1400
     40 H40        -7.1960    0.7387   64.4529 H       1  ZINC000274225049    0.1400
     41 H41       -10.0965    2.2686   57.6895 H       1  ZINC000274225049    0.1300
     42 H42       -11.6524    1.5600   55.9547 H       1  ZINC000274225049    0.1300
     43 H43       -12.1346   -0.8222   55.5912 H       1  ZINC000274225049    0.1300
     44 H44       -11.0687   -2.5346   56.9566 H       1  ZINC000274225049    0.1300
     45 H45        -7.9553   -2.4202   60.5310 H       1  ZINC000274225049    0.1300
     46 H46        -7.4704   -0.0385   60.8895 H       1  ZINC000274225049    0.1300
@<TRIPOS>BOND
     1     1     2    1
     2     1    28    1
     3     1    29    1
     4     1    30    1
     5     2     3    1
     6     2     4    1
     7     2    17    1
     8     4     5   am
     9     4    31    1
    10     5     6    2
    11     5     7   am
    12     7     8    1
    13     7    32    1
    14     8     9    1
    15     8    33    1
    16     8    34    1
    17     9    10    1
    18     9    16    1
    19     9    11    1
    20    11    12    1
    21    11    35    1
    22    11    36    1
    23    12    13    1
    24    12    37    1
    25    12    38    1
    26    13    14    2
    27    13    15    2
    28    13    16    1
    29    16    39    1
    30    16    40    1
    31    17    27   ar
    32    17    18   ar
    33    18    23   ar
    34    18    19   ar
    35    19    20   ar
    36    19    41    1
    37    20    21   ar
    38    20    42    1
    39    21    22   ar
    40    21    43    1
    41    22    23   ar
    42    22    44    1
    43    23    24   ar
    44    24    25    1
    45    24    26   ar
    46    26    27   ar
    47    26    45    1
    48    27    46    1
@<TRIPOS>SUBSTRUCTURE
     1 ZINC000274225049        1 TEMP              0 ****  ****    0 ROOT


##########                                Name:    ZINC000416583757
##########                DOCK_Rotatable_Bonds:                   7
##########                         Heavy_Atoms:                  20
##########                    Molecular_Weight:             380.693
##########                DOCK_Rotatable_Bonds:                   7
##########                       Formal_Charge:         1.04308e-07
##########                     HBond_Acceptors:                   7
##########                        HBond_Donors:                   1
##########                         Heavy_Atoms:                  20
##########                          Grid_Score:          -30.477262
##########                     Grid_vdw_energy:          -30.181786
##########                      Grid_es_energy:           -0.295477
##########           Internal_energy_repulsive:            7.658941

@<TRIPOS>MOLECULE
ZINC000416583757
 35 35 1 0 0
SMALL
USER_CHARGES


@<TRIPOS>ATOM
      1 C1         -8.5111    0.4539   55.6491 C.3     1  ZINC000416583757   -0.1500
      2 C2         -8.6334    0.3447   54.1280 C.3     1  ZINC000416583757   -0.0200
      3 H3         -8.7742   -0.6996   53.8488 H       1  ZINC000416583757    0.1200
      4 C4         -9.7881    1.1348   53.6706 C.1     1  ZINC000416583757    0.2100
      5 N5        -10.6791    1.7446   53.3176 N.1     1  ZINC000416583757   -0.4200
      6 C6         -7.3580    0.8798   53.4739 C.3     1  ZINC000416583757    0.1300
      7 N7         -7.4696    0.7621   52.0179 N.am    1  ZINC000416583757   -1.0100
      8 C8         -8.0841   -0.4279   51.4242 C.3     1  ZINC000416583757    0.0800
      9 S9         -6.9011    1.9741   51.0432 S.o2    1  ZINC000416583757    2.7800
     10 O10        -7.0139    1.5013   49.7078 O.2     1  ZINC000416583757   -0.9700
     11 O11        -7.5122    3.1740   51.4970 O.2     1  ZINC000416583757   -0.9700
     12 N12        -5.2810    2.1299   51.3489 N.am    1  ZINC000416583757   -1.1300
     13 C13        -4.4931    3.1339   50.6297 C.3     1  ZINC000416583757    0.1600
     14 C14        -3.1581    2.5471   50.2497 C.ar    1  ZINC000416583757   -0.0800
     15 C15        -3.1005    1.4276   49.4414 C.ar    1  ZINC000416583757   -0.0800
     16 C16        -1.8749    0.8887   49.0918 C.ar    1  ZINC000416583757   -0.0300
     17 Cl17       -1.8026   -0.5172   48.0759 Cl      1  ZINC000416583757   -0.0500
     18 C18        -0.7075    1.4707   49.5515 C.ar    1  ZINC000416583757   -0.0700
     19 C19        -0.7658    2.5912   50.3605 C.ar    1  ZINC000416583757   -0.0800
     20 Br20        0.8298    3.3875   50.9895 Br      1  ZINC000416583757   -0.0300
     21 C21        -1.9913    3.1321   50.7051 C.ar    1  ZINC000416583757   -0.0700
     22 H22        -9.4622    0.1879   56.1101 H       1  ZINC000416583757    0.0700
     23 H23        -7.7342   -0.2250   56.0008 H       1  ZINC000416583757    0.0800
     24 H24        -8.2495    1.4769   55.9200 H       1  ZINC000416583757    0.0700
     25 H25        -7.2227    1.9271   53.7445 H       1  ZINC000416583757    0.0900
     26 H26        -6.5017    0.3014   53.8206 H       1  ZINC000416583757    0.1000
     27 H27        -9.1559   -0.2650   51.3104 H       1  ZINC000416583757    0.0700
     28 H28        -7.6396   -0.6174   50.4472 H       1  ZINC000416583757    0.0800
     29 H29        -7.9141   -1.2869   52.0733 H       1  ZINC000416583757    0.0800
     30 H30        -4.8538    1.5563   52.0041 H       1  ZINC000416583757    0.4200
     31 H31        -5.0263    3.4371   49.7286 H       1  ZINC000416583757    0.0800
     32 H32        -4.3392    4.0023   51.2703 H       1  ZINC000416583757    0.1000
     33 H33        -4.0122    0.9731   49.0828 H       1  ZINC000416583757    0.1500
     34 H34         0.2494    1.0503   49.2793 H       1  ZINC000416583757    0.1500
     35 H35        -2.0368    4.0070   51.3368 H       1  ZINC000416583757    0.1400
@<TRIPOS>BOND
     1     1     2    1
     2     1    22    1
     3     1    23    1
     4     1    24    1
     5     2     3    1
     6     2     4    1
     7     2     6    1
     8     4     5    3
     9     6     7    1
    10     6    25    1
    11     6    26    1
    12     7     8    1
    13     7     9   am
    14     8    27    1
    15     8    28    1
    16     8    29    1
    17     9    10    2
    18     9    11    2
    19     9    12   am
    20    12    13    1
    21    12    30    1
    22    13    14    1
    23    13    31    1
    24    13    32    1
    25    14    21   ar
    26    14    15   ar
    27    15    16   ar
    28    15    33    1
    29    16    17    1
    30    16    18   ar
    31    18    19   ar
    32    18    34    1
    33    19    20    1
    34    19    21   ar
    35    21    35    1
@<TRIPOS>SUBSTRUCTURE
     1 ZINC000416583757        1 TEMP              0 ****  ****    0 ROOT


##########                                Name:    ZINC000530457945
##########                DOCK_Rotatable_Bonds:                   4
##########                         Heavy_Atoms:                  25
##########                    Molecular_Weight:             355.827
##########                DOCK_Rotatable_Bonds:                   4
##########                       Formal_Charge:           0.0199997
##########                     HBond_Acceptors:                   7
##########                        HBond_Donors:                   1
##########                         Heavy_Atoms:                  25
##########                          Grid_Score:          -30.431156
##########                     Grid_vdw_energy:          -30.231798
##########                      Grid_es_energy:           -0.199358
##########           Internal_energy_repulsive:           30.945463

@<TRIPOS>MOLECULE
ZINC000530457945
 43 46 1 0 0
SMALL
USER_CHARGES


@<TRIPOS>ATOM
      1 C1         -8.2442    1.9079   60.9497 C.3     1  ZINC000530457945   -0.1700
      2 C2         -8.1928    0.5102   60.3296 C.3     1  ZINC000530457945    0.0900
      3 H3         -7.1799    0.2918   59.9914 H       1  ZINC000530457945    0.1100
      4 C4         -9.1728    0.4273   59.1403 C.3     1  ZINC000530457945   -0.1200
      5 H5         -9.9587    1.1766   59.2354 H       1  ZINC000530457945    0.1100
      6 C6         -8.4397    0.5898   57.8336 C.2     1  ZINC000530457945    0.5300
      7 O7         -7.2271    0.5914   57.8148 O.2     1  ZINC000530457945   -0.4700
      8 N8         -9.1319    0.7334   56.6860 N.am    1  ZINC000530457945   -0.6200
      9 C9         -8.4526    0.8857   55.4753 C.2     1  ZINC000530457945    0.4800
     10 N10        -7.7490    1.9434   55.1255 N.2     1  ZINC000530457945   -0.3000
     11 N11        -7.2369    1.6920   53.8446 N.pl3   1  ZINC000530457945   -0.2800
     12 C12        -6.4544    2.4139   52.9999 C.2     1  ZINC000530457945    0.1400
     13 C13        -6.1026    1.9150   51.7921 C.2     1  ZINC000530457945   -0.0800
     14 Cl14       -5.1024    2.8518   50.7265 Cl      1  ZINC000530457945   -0.0200
     15 C15        -6.5438    0.6424   51.3991 C.2     1  ZINC000530457945   -0.0500
     16 C16        -7.3281   -0.0874   52.2405 C.2     1  ZINC000530457945   -0.0900
     17 C17        -7.6821    0.4502   53.4907 C.2     1  ZINC000530457945    0.3000
     18 N18        -8.4111   -0.0164   54.4998 N.2     1  ZINC000530457945   -0.5500
     19 C19        -9.7598   -1.0028   59.2701 C.3     1  ZINC000530457945   -0.1200
     20 C20        -9.8315   -1.1732   60.8081 C.3     1  ZINC000530457945    0.0400
     21 N21        -8.6182   -0.4945   61.3212 N.3     1  ZINC000530457945   -0.4900
     22 C22        -8.8636    0.0992   62.5615 C.ar    1  ZINC000530457945    0.1000
     23 C23       -10.0371    0.8119   62.7721 C.ar    1  ZINC000530457945   -0.1600
     24 C24       -10.2767    1.3972   63.9999 C.ar    1  ZINC000530457945   -0.1100
     25 C25        -9.3498    1.2747   65.0188 C.ar    1  ZINC000530457945   -0.1300
     26 C26        -8.1805    0.5659   64.8124 C.ar    1  ZINC000530457945   -0.1100
     27 C27        -7.9372   -0.0268   63.5890 C.ar    1  ZINC000530457945   -0.1000
     28 H28        -7.6463    1.9233   61.8610 H       1  ZINC000530457945    0.0700
     29 H29        -7.8460    2.6346   60.2416 H       1  ZINC000530457945    0.0600
     30 H30        -9.2770    2.1617   61.1886 H       1  ZINC000530457945    0.0600
     31 H31       -10.1017    0.7309   56.7010 H       1  ZINC000530457945    0.4300
     32 H32        -6.1106    3.3943   53.2949 H       1  ZINC000530457945    0.1800
     33 H33        -6.2637    0.2440   50.4352 H       1  ZINC000530457945    0.1600
     34 H34        -7.6749   -1.0682   51.9502 H       1  ZINC000530457945    0.1700
     35 H35       -10.7528   -1.0594   58.8243 H       1  ZINC000530457945    0.0900
     36 H36        -9.0916   -1.7409   58.8262 H       1  ZINC000530457945    0.0900
     37 H37       -10.7295   -0.6965   61.2012 H       1  ZINC000530457945    0.0700
     38 H38        -9.8144   -2.2301   61.0740 H       1  ZINC000530457945    0.0900
     39 H39       -10.7611    0.9086   61.9767 H       1  ZINC000530457945    0.1200
     40 H40       -11.1889    1.9516   64.1644 H       1  ZINC000530457945    0.1200
     41 H41        -9.5393    1.7340   65.9777 H       1  ZINC000530457945    0.1200
     42 H42        -7.4586    0.4721   65.6102 H       1  ZINC000530457945    0.1300
     43 H43        -7.0240   -0.5805   63.4285 H       1  ZINC000530457945    0.1300
@<TRIPOS>BOND
     1     1     2    1
     2     1    28    1
     3     1    29    1
     4     1    30    1
     5     2     3    1
     6     2    21    1
     7     2     4    1
     8     4     5    1
     9     4     6    1
    10     4    19    1
    11     6     7    2
    12     6     8   am
    13     8     9    1
    14     8    31    1
    15     9    18    1
    16     9    10    2
    17    10    11    1
    18    11    17    1
    19    11    12    1
    20    12    13    2
    21    12    32    1
    22    13    14    1
    23    13    15    1
    24    15    16    2
    25    15    33    1
    26    16    17    1
    27    16    34    1
    28    17    18    2
    29    19    20    1
    30    19    35    1
    31    19    36    1
    32    20    21    1
    33    20    37    1
    34    20    38    1
    35    21    22    1
    36    22    27   ar
    37    22    23   ar
    38    23    24   ar
    39    23    39    1
    40    24    25   ar
    41    24    40    1
    42    25    26   ar
    43    25    41    1
    44    26    27   ar
    45    26    42    1
    46    27    43    1
@<TRIPOS>SUBSTRUCTURE
     1 ZINC000530457945        1 TEMP              0 ****  ****    0 ROOT


##########                                Name:    ZINC000805177769
##########                DOCK_Rotatable_Bonds:                  10
##########                         Heavy_Atoms:                  30
##########                    Molecular_Weight:             417.548
##########                DOCK_Rotatable_Bonds:                  10
##########                       Formal_Charge:           0.0199995
##########                     HBond_Acceptors:                   7
##########                        HBond_Donors:                   1
##########                         Heavy_Atoms:                  30
##########                          Grid_Score:          -30.423660
##########                     Grid_vdw_energy:          -28.770975
##########                      Grid_es_energy:           -1.652684
##########           Internal_energy_repulsive:           39.428337

@<TRIPOS>MOLECULE
ZINC000805177769
 65 66 1 0 0
SMALL
USER_CHARGES


@<TRIPOS>ATOM
      1 C1         -6.3303    0.6365   50.9595 C.3     1  ZINC000805177769   -0.1200
      2 C2         -7.2848    0.8798   52.1001 C.ar    1  ZINC000805177769   -0.0800
      3 C3         -8.5021    0.2261   52.1338 C.ar    1  ZINC000805177769   -0.1200
      4 C4         -9.3778    0.4493   53.1803 C.ar    1  ZINC000805177769   -0.1100
      5 C5         -9.0358    1.3258   54.1926 C.ar    1  ZINC000805177769   -0.0900
      6 C6         -9.9905    1.5695   55.3329 C.3     1  ZINC000805177769   -0.0900
      7 C7        -10.8477    0.3218   55.5557 C.3     1  ZINC000805177769    0.1500
      8 H8        -10.4001   -0.5244   55.0345 H       1  ZINC000805177769    0.1000
      9 C9        -12.2568    0.5677   55.0127 C.3     1  ZINC000805177769   -0.1700
     10 N10       -10.9209    0.0292   56.9892 N.am    1  ZINC000805177769   -0.6900
     11 C11       -10.7620   -1.2353   57.4279 C.2     1  ZINC000805177769    0.5100
     12 O12       -10.5598   -2.1315   56.6352 O.2     1  ZINC000805177769   -0.5100
     13 C13       -10.8348   -1.5334   58.8905 C.2     1  ZINC000805177769    0.5200
     14 O14       -11.4870   -2.4774   59.2856 O.2     1  ZINC000805177769   -0.5200
     15 N15       -10.1761   -0.7538   59.7708 N.am    1  ZINC000805177769   -0.5900
     16 C16        -9.3531    0.4159   59.4308 C.3     1  ZINC000805177769    0.1100
     17 C17        -8.8246    1.0050   60.7556 C.3     1  ZINC000805177769   -0.1500
     18 C18        -9.8388    0.4721   61.8019 C.3     1  ZINC000805177769    0.1500
     19 H19       -10.7320    1.0961   61.8333 H       1  ZINC000805177769    0.1200
     20 N20        -9.2230    0.3744   63.1277 N.am    1  ZINC000805177769   -0.5900
     21 C21        -7.8918   -0.2192   63.2751 C.3     1  ZINC000805177769    0.0800
     22 C22        -9.8814    0.8303   64.2117 C.2     1  ZINC000805177769    0.6600
     23 O23       -10.9849    1.3240   64.0893 O.2     1  ZINC000805177769   -0.5600
     24 O24        -9.3161    0.7390   65.4303 O.3     1  ZINC000805177769   -0.3600
     25 C25        -9.3674    1.9219   66.2710 C.3     1  ZINC000805177769    0.1400
     26 C26        -8.2955    1.8217   67.3582 C.3     1  ZINC000805177769   -0.1800
     27 C27        -9.1130    3.1657   65.4172 C.3     1  ZINC000805177769   -0.1400
     28 C28       -10.7475    2.0245   66.9233 C.3     1  ZINC000805177769   -0.1800
     29 C29       -10.1668   -0.9291   61.2345 C.3     1  ZINC000805177769    0.0900
     30 C30        -7.8175    1.9787   54.1596 C.ar    1  ZINC000805177769   -0.0800
     31 C31        -7.4444    2.9340   55.2637 C.3     1  ZINC000805177769   -0.1200
     32 C32        -6.9404    1.7526   53.1155 C.ar    1  ZINC000805177769   -0.1200
     33 H33        -5.6739   -0.1978   51.2068 H       1  ZINC000805177769    0.0700
     34 H34        -6.8947    0.3998   50.0576 H       1  ZINC000805177769    0.0700
     35 H35        -5.7319    1.5315   50.7893 H       1  ZINC000805177769    0.0700
     36 H36        -8.7693   -0.4589   51.3428 H       1  ZINC000805177769    0.1200
     37 H37       -10.3293   -0.0610   53.2062 H       1  ZINC000805177769    0.1200
     38 H38        -9.4258    1.7888   56.2390 H       1  ZINC000805177769    0.0800
     39 H39       -10.6350    2.4151   55.0928 H       1  ZINC000805177769    0.0900
     40 H40       -12.7044    1.4139   55.5339 H       1  ZINC000805177769    0.0600
     41 H41       -12.2024    0.7854   53.9461 H       1  ZINC000805177769    0.0700
     42 H42       -12.8676   -0.3211   55.1714 H       1  ZINC000805177769    0.0600
     43 H43       -11.0837    0.7455   57.6228 H       1  ZINC000805177769    0.4100
     44 H44        -8.5171    0.1108   58.8013 H       1  ZINC000805177769    0.0900
     45 H45        -9.9596    1.1576   58.9112 H       1  ZINC000805177769    0.0900
     46 H46        -7.8212    0.6364   60.9686 H       1  ZINC000805177769    0.0900
     47 H47        -8.8380    2.0945   60.7258 H       1  ZINC000805177769    0.0900
     48 H48        -7.1346    0.5592   63.1816 H       1  ZINC000805177769    0.0600
     49 H49        -7.8102   -0.6896   64.2549 H       1  ZINC000805177769    0.0800
     50 H50        -7.7401   -0.9688   62.4984 H       1  ZINC000805177769    0.0800
     51 H51        -7.3123    1.7485   66.8935 H       1  ZINC000805177769    0.0600
     52 H52        -8.3340    2.7096   67.9892 H       1  ZINC000805177769    0.0700
     53 H53        -8.4767    0.9355   67.9665 H       1  ZINC000805177769    0.0900
     54 H54        -9.8766    3.2370   64.6426 H       1  ZINC000805177769    0.0700
     55 H55        -9.1515    4.0536   66.0482 H       1  ZINC000805177769    0.0800
     56 H56        -8.1297    3.0925   64.9524 H       1  ZINC000805177769    0.0700
     57 H57       -10.9287    1.1384   67.5316 H       1  ZINC000805177769    0.0900
     58 H58       -10.7860    2.9125   67.5543 H       1  ZINC000805177769    0.0700
     59 H59       -11.5111    2.0959   66.1487 H       1  ZINC000805177769    0.0600
     60 H60       -11.1432   -1.2619   61.5864 H       1  ZINC000805177769    0.0900
     61 H61        -9.3956   -1.6444   61.5207 H       1  ZINC000805177769    0.0800
     62 H62        -6.9258    2.3912   56.0540 H       1  ZINC000805177769    0.0700
     63 H63        -6.7904    3.7105   54.8667 H       1  ZINC000805177769    0.0700
     64 H64        -8.3469    3.3914   55.6690 H       1  ZINC000805177769    0.0700
     65 H65        -5.9888    2.2626   53.0896 H       1  ZINC000805177769    0.1200
@<TRIPOS>BOND
     1     1     2    1
     2     1    33    1
     3     1    34    1
     4     1    35    1
     5     2    32   ar
     6     2     3   ar
     7     3     4   ar
     8     3    36    1
     9     4     5   ar
    10     4    37    1
    11     5     6    1
    12     5    30   ar
    13     6     7    1
    14     6    38    1
    15     6    39    1
    16     7     8    1
    17     7     9    1
    18     7    10    1
    19     9    40    1
    20     9    41    1
    21     9    42    1
    22    10    11   am
    23    10    43    1
    24    11    12    2
    25    11    13    1
    26    13    14    2
    27    13    15   am
    28    15    29    1
    29    15    16    1
    30    16    17    1
    31    16    44    1
    32    16    45    1
    33    17    18    1
    34    17    46    1
    35    17    47    1
    36    18    19    1
    37    18    20    1
    38    18    29    1
    39    20    21    1
    40    20    22   am
    41    21    48    1
    42    21    49    1
    43    21    50    1
    44    22    23    2
    45    22    24    1
    46    24    25    1
    47    25    26    1
    48    25    27    1
    49    25    28    1
    50    26    51    1
    51    26    52    1
    52    26    53    1
    53    27    54    1
    54    27    55    1
    55    27    56    1
    56    28    57    1
    57    28    58    1
    58    28    59    1
    59    29    60    1
    60    29    61    1
    61    30    31    1
    62    30    32   ar
    63    31    62    1
    64    31    63    1
    65    31    64    1
    66    32    65    1
@<TRIPOS>SUBSTRUCTURE
     1 ZINC000805177769        1 TEMP              0 ****  ****    0 ROOT


##########                                Name:    ZINC000463741321
##########                DOCK_Rotatable_Bonds:                   7
##########                         Heavy_Atoms:                  26
##########                    Molecular_Weight:             354.467
##########                DOCK_Rotatable_Bonds:                   7
##########                       Formal_Charge:         -6.4075e-07
##########                     HBond_Acceptors:                   4
##########                        HBond_Donors:                   1
##########                         Heavy_Atoms:                  26
##########                          Grid_Score:          -30.415977
##########                     Grid_vdw_energy:          -30.300379
##########                      Grid_es_energy:           -0.115599
##########           Internal_energy_repulsive:           15.488974

@<TRIPOS>MOLECULE
ZINC000463741321
 53 55 1 0 0
SMALL
USER_CHARGES


@<TRIPOS>ATOM
      1 C1         -8.4647    0.7933   56.0582 C.3     1  ZINC000463741321   -0.1500
      2 C2         -9.2104   -0.1933   55.1573 C.3     1  ZINC000463741321   -0.1100
      3 H3         -9.0288   -1.2107   55.5040 H       1  ZINC000463741321    0.1000
      4 C4        -10.7106    0.1028   55.2086 C.3     1  ZINC000463741321   -0.0900
      5 C5        -11.4887   -1.2134   55.2636 C.3     1  ZINC000463741321   -0.0800
      6 C6        -11.2565   -1.8789   56.5955 C.ar    1  ZINC000463741321   -0.1200
      7 C7        -10.6360   -3.1122   56.6530 C.ar    1  ZINC000463741321   -0.0900
      8 C8        -10.4229   -3.7232   57.8750 C.ar    1  ZINC000463741321   -0.1300
      9 C9        -10.8304   -3.1013   59.0402 C.ar    1  ZINC000463741321   -0.1000
     10 C10       -11.4516   -1.8679   58.9851 C.ar    1  ZINC000463741321   -0.1500
     11 C11       -11.6597   -1.2522   57.7627 C.ar    1  ZINC000463741321    0.1000
     12 F12       -12.2668   -0.0465   57.7077 F       1  ZINC000463741321   -0.1400
     13 C13        -8.7182   -0.0504   53.7402 C.2     1  ZINC000463741321    0.5200
     14 O14        -8.9091   -0.9409   52.9392 O.2     1  ZINC000463741321   -0.5300
     15 N15        -8.0660    1.0670   53.3627 N.am    1  ZINC000463741321   -0.7300
     16 C16        -7.5860    1.2052   51.9854 C.3     1  ZINC000463741321    0.1500
     17 H17        -7.6068    0.2327   51.4935 H       1  ZINC000463741321    0.1000
     18 C18        -8.4876    2.1818   51.2254 C.3     1  ZINC000463741321   -0.1300
     19 C19        -7.9443    2.3666   49.8059 C.3     1  ZINC000463741321   -0.1200
     20 C20        -6.5012    2.8710   49.8788 C.3     1  ZINC000463741321    0.0600
     21 N21        -5.6793    1.9017   50.6145 N.3     1  ZINC000463741321   -0.4800
     22 C22        -4.3311    2.2657   50.5869 C.ar    1  ZINC000463741321    0.1100
     23 C23        -3.4353    1.5591   49.7944 C.ar    1  ZINC000463741321   -0.1700
     24 C24        -2.1031    1.9220   49.7690 C.ar    1  ZINC000463741321   -0.0900
     25 C25        -1.6604    2.9872   50.5317 C.ar    1  ZINC000463741321   -0.1500
     26 C26        -2.5494    3.6928   51.3216 C.ar    1  ZINC000463741321   -0.0900
     27 C27        -3.8840    3.3388   51.3474 C.ar    1  ZINC000463741321   -0.1400
     28 C28        -6.1530    1.7423   51.9953 C.3     1  ZINC000463741321    0.0500
     29 H29        -8.6462    1.8106   55.7114 H       1  ZINC000463741321    0.0600
     30 H30        -8.8206    0.6898   57.0831 H       1  ZINC000463741321    0.0700
     31 H31        -7.3959    0.5823   56.0216 H       1  ZINC000463741321    0.0600
     32 H32       -10.9340    0.6943   56.0964 H       1  ZINC000463741321    0.0700
     33 H33       -11.0015    0.6600   54.3181 H       1  ZINC000463741321    0.0700
     34 H34       -12.5526   -1.0119   55.1387 H       1  ZINC000463741321    0.0800
     35 H35       -11.1472   -1.8711   54.4643 H       1  ZINC000463741321    0.0800
     36 H36       -10.3179   -3.5994   55.7432 H       1  ZINC000463741321    0.1300
     37 H37        -9.9379   -4.6872   57.9189 H       1  ZINC000463741321    0.1300
     38 H38       -10.6637   -3.5797   59.9941 H       1  ZINC000463741321    0.1300
     39 H39       -11.7706   -1.3825   59.8957 H       1  ZINC000463741321    0.1400
     40 H40        -7.9144    1.7797   54.0029 H       1  ZINC000463741321    0.4000
     41 H41        -9.5004    1.7816   51.1786 H       1  ZINC000463741321    0.0700
     42 H42        -8.4982    3.1431   51.7393 H       1  ZINC000463741321    0.0600
     43 H43        -7.9702    1.4126   49.2793 H       1  ZINC000463741321    0.0800
     44 H44        -8.5574    3.0937   49.2733 H       1  ZINC000463741321    0.0800
     45 H45        -6.1067    2.9900   48.8698 H       1  ZINC000463741321    0.0900
     46 H46        -6.4778    3.8316   50.3934 H       1  ZINC000463741321    0.0500
     47 H47        -3.7803    0.7266   49.1991 H       1  ZINC000463741321    0.1200
     48 H48        -1.4061    1.3731   49.1532 H       1  ZINC000463741321    0.1200
     49 H49        -0.6178    3.2685   50.5105 H       1  ZINC000463741321    0.1200
     50 H50        -2.2003    4.5243   51.9161 H       1  ZINC000463741321    0.1200
     51 H51        -4.5779    3.8904   51.9643 H       1  ZINC000463741321    0.1300
     52 H52        -6.1314    2.7079   52.5004 H       1  ZINC000463741321    0.0500
     53 H53        -5.5054    1.0419   52.5229 H       1  ZINC000463741321    0.0900
@<TRIPOS>BOND
     1     1     2    1
     2     1    29    1
     3     1    30    1
     4     1    31    1
     5     2     3    1
     6     2     4    1
     7     2    13    1
     8     4     5    1
     9     4    32    1
    10     4    33    1
    11     5     6    1
    12     5    34    1
    13     5    35    1
    14     6    11   ar
    15     6     7   ar
    16     7     8   ar
    17     7    36    1
    18     8     9   ar
    19     8    37    1
    20     9    10   ar
    21     9    38    1
    22    10    11   ar
    23    10    39    1
    24    11    12    1
    25    13    14    2
    26    13    15   am
    27    15    16    1
    28    15    40    1
    29    16    17    1
    30    16    28    1
    31    16    18    1
    32    18    19    1
    33    18    41    1
    34    18    42    1
    35    19    20    1
    36    19    43    1
    37    19    44    1
    38    20    21    1
    39    20    45    1
    40    20    46    1
    41    21    22    1
    42    21    28    1
    43    22    27   ar
    44    22    23   ar
    45    23    24   ar
    46    23    47    1
    47    24    25   ar
    48    24    48    1
    49    25    26   ar
    50    25    49    1
    51    26    27   ar
    52    26    50    1
    53    27    51    1
    54    28    52    1
    55    28    53    1
@<TRIPOS>SUBSTRUCTURE
     1 ZINC000463741321        1 TEMP              0 ****  ****    0 ROOT


##########                                Name:    ZINC000548281822
##########                DOCK_Rotatable_Bonds:                   6
##########                         Heavy_Atoms:                  24
##########                    Molecular_Weight:             332.406
##########                DOCK_Rotatable_Bonds:                   6
##########                       Formal_Charge:        -5.58794e-08
##########                     HBond_Acceptors:                   8
##########                        HBond_Donors:                   2
##########                         Heavy_Atoms:                  24
##########                          Grid_Score:          -30.412212
##########                     Grid_vdw_energy:          -30.043770
##########                      Grid_es_energy:           -0.368443
##########           Internal_energy_repulsive:            5.978753

@<TRIPOS>MOLECULE
ZINC000548281822
 48 50 1 0 0
SMALL
USER_CHARGES


@<TRIPOS>ATOM
      1 C1        -12.9509   -0.2093   55.1018 C.3     1  ZINC000548281822   -0.1700
      2 C2        -11.4978   -0.5820   54.8006 C.3     1  ZINC000548281822    0.2600
      3 H3        -11.4652   -1.2532   53.9423 H       1  ZINC000548281822    0.1400
      4 N4        -10.7345    0.6318   54.5006 N.am    1  ZINC000548281822   -0.7400
      5 C5         -9.6207    0.5580   53.7453 C.2     1  ZINC000548281822    0.7100
      6 O6         -9.2486   -0.5161   53.3140 O.2     1  ZINC000548281822   -0.5700
      7 N7         -8.9193    1.6750   53.4680 N.am    1  ZINC000548281822   -0.7400
      8 C8         -7.7096    1.5951   52.6455 C.3     1  ZINC000548281822    0.1600
      9 H9         -7.2203    0.6351   52.8100 H       1  ZINC000548281822    0.1000
     10 C10        -8.0866    1.7301   51.1672 C.3     1  ZINC000548281822   -0.1400
     11 C11        -6.8652    1.4140   50.2969 C.3     1  ZINC000548281822    0.1100
     12 N12        -5.7264    2.1990   50.7788 N.pl3   1  ZINC000548281822   -0.4600
     13 C13        -4.5623    2.4704   50.1236 C.2     1  ZINC000548281822   -0.0500
     14 C14        -3.8162    3.2249   50.9559 C.2     1  ZINC000548281822   -0.0300
     15 N15        -4.5121    3.4064   52.0900 N.2     1  ZINC000548281822   -0.4900
     16 C16        -5.6564    2.7953   51.9926 C.2     1  ZINC000548281822    0.2100
     17 C17        -6.7527    2.7305   53.0300 C.3     1  ZINC000548281822   -0.0500
     18 C18       -10.8969   -1.2700   55.9992 C.2     1  ZINC000548281822    0.1700
     19 N19       -10.7200   -0.7511   57.1903 N.2     1  ZINC000548281822   -0.4600
     20 C20       -10.1578   -1.7241   57.9293 C.2     1  ZINC000548281822    0.1900
     21 C21        -9.7571   -1.6246   59.3787 C.3     1  ZINC000548281822    0.0200
     22 C22        -8.2685   -1.9493   59.5197 C.3     1  ZINC000548281822   -0.1400
     23 C23       -10.0194   -0.2045   59.8840 C.3     1  ZINC000548281822   -0.1400
     24 C24       -10.5763   -2.6191   60.2037 C.3     1  ZINC000548281822   -0.1400
     25 N25       -10.0238   -2.7658   57.1641 N.2     1  ZINC000548281822   -0.3700
     26 O26       -10.4477   -2.5276   56.0527 O.3     1  ZINC000548281822    0.0800
     27 H27       -12.9834    0.4617   55.9601 H       1  ZINC000548281822    0.0700
     28 H28       -13.3855    0.2882   54.2349 H       1  ZINC000548281822    0.0900
     29 H29       -13.5188   -1.1125   55.3250 H       1  ZINC000548281822    0.0800
     30 H30       -11.0306    1.4887   54.8457 H       1  ZINC000548281822    0.4000
     31 H31        -9.2155    2.5319   53.8130 H       1  ZINC000548281822    0.4000
     32 H32        -8.8904    1.0327   50.9320 H       1  ZINC000548281822    0.1000
     33 H33        -8.4199    2.7488   50.9689 H       1  ZINC000548281822    0.0800
     34 H34        -6.6323    0.3515   50.3665 H       1  ZINC000548281822    0.0900
     35 H35        -7.0774    1.6765   49.2604 H       1  ZINC000548281822    0.1000
     36 H36        -4.2900    2.1441   49.1307 H       1  ZINC000548281822    0.1800
     37 H37        -2.8308    3.6144   50.7472 H       1  ZINC000548281822    0.1700
     38 H38        -7.2945    3.6761   53.0519 H       1  ZINC000548281822    0.0900
     39 H39        -6.3199    2.5313   54.0103 H       1  ZINC000548281822    0.1000
     40 H40        -7.6849   -1.2408   58.9318 H       1  ZINC000548281822    0.0600
     41 H41        -7.9786   -1.8774   60.5679 H       1  ZINC000548281822    0.0700
     42 H42        -8.0816   -2.9610   59.1595 H       1  ZINC000548281822    0.0700
     43 H43       -11.0798    0.0267   59.7836 H       1  ZINC000548281822    0.0600
     44 H44        -9.7295   -0.1327   60.9323 H       1  ZINC000548281822    0.0700
     45 H45        -9.4357    0.5039   59.2963 H       1  ZINC000548281822    0.0600
     46 H46       -10.3895   -3.6308   59.8437 H       1  ZINC000548281822    0.0700
     47 H47       -10.2865   -2.5472   61.2520 H       1  ZINC000548281822    0.0700
     48 H48       -11.6367   -2.3878   60.1033 H       1  ZINC000548281822    0.0600
@<TRIPOS>BOND
     1     1     2    1
     2     1    27    1
     3     1    28    1
     4     1    29    1
     5     2     3    1
     6     2     4    1
     7     2    18    1
     8     4     5   am
     9     4    30    1
    10     5     6    2
    11     5     7   am
    12     7     8    1
    13     7    31    1
    14     8     9    1
    15     8    17    1
    16     8    10    1
    17    10    11    1
    18    10    32    1
    19    10    33    1
    20    11    12    1
    21    11    34    1
    22    11    35    1
    23    12    16    1
    24    12    13    1
    25    13    14    2
    26    13    36    1
    27    14    15    1
    28    14    37    1
    29    15    16    2
    30    16    17    1
    31    17    38    1
    32    17    39    1
    33    18    26    1
    34    18    19    2
    35    19    20    1
    36    20    21    1
    37    20    25    2
    38    21    22    1
    39    21    23    1
    40    21    24    1
    41    22    40    1
    42    22    41    1
    43    22    42    1
    44    23    43    1
    45    23    44    1
    46    23    45    1
    47    24    46    1
    48    24    47    1
    49    24    48    1
    50    25    26    1
@<TRIPOS>SUBSTRUCTURE
     1 ZINC000548281822        1 TEMP              0 ****  ****    0 ROOT


##########                                Name:    ZINC000355549087
##########                DOCK_Rotatable_Bonds:                   9
##########                         Heavy_Atoms:                  23
##########                    Molecular_Weight:             336.415
##########                DOCK_Rotatable_Bonds:                   9
##########                       Formal_Charge:        -9.53674e-07
##########                     HBond_Acceptors:                   8
##########                        HBond_Donors:                   4
##########                         Heavy_Atoms:                  23
##########                          Grid_Score:          -30.410000
##########                     Grid_vdw_energy:          -30.140409
##########                      Grid_es_energy:           -0.269590
##########           Internal_energy_repulsive:           13.403702

@<TRIPOS>MOLECULE
ZINC000355549087
 43 44 1 0 0
SMALL
USER_CHARGES


@<TRIPOS>ATOM
      1 C1         -8.3053   -0.8046   58.6477 C.3     1  <0>        -0.1500
      2 C2         -9.1801   -1.8694   59.3123 C.3     1  <0>        -0.1200
      3 C3        -10.6546   -1.5012   59.1351 C.3     1  <0>        -0.1000
      4 H4        -10.7458   -0.4241   58.9951 H       1  <0>         0.0800
      5 C5        -11.4385   -1.9219   60.3797 C.3     1  <0>        -0.1500
      6 C6        -11.2170   -2.2242   57.9095 C.3     1  <0>         0.0900
      7 H7        -10.6879   -3.1667   57.7691 H       1  <0>         0.1000
      8 O8        -12.6084   -2.4836   58.1064 O.3     1  <0>        -0.3500
      9 C9        -13.2270   -3.1865   57.0270 C.3     1  <0>         0.0200
     10 C10       -11.0350   -1.3594   56.6888 C.2     1  <0>         0.5100
     11 O11       -11.2553   -0.1684   56.7512 O.2     1  <0>        -0.4800
     12 N12       -10.6276   -1.9094   55.5278 N.am    1  <0>        -0.6200
     13 C13       -10.4582   -1.1117   54.4027 C.2     1  <0>         0.2400
     14 N14        -9.3243   -0.8886   53.8189 N.2     1  <0>        -0.5000
     15 C15        -9.3431   -0.1001   52.7523 C.2     1  <0>         0.1700
     16 C16        -8.1209    0.2444   51.9819 C.2     1  <0>        -0.1100
     17 C17        -7.0048   -0.5310   51.8489 C.2     1  <0>         0.0600
     18 N18        -6.1122    0.1294   51.0714 N.pl3   1  <0>        -0.5400
     19 C19        -6.6554    1.3384   50.7003 C.2     1  <0>        -0.0600
     20 C20        -6.0105    2.3512   49.8572 C.2     1  <0>         0.5900
     21 N21        -4.9368    2.0230   49.1115 N.am    1  <0>        -0.8600
     22 O22        -6.4449    3.4877   49.8312 O.2     1  <0>        -0.5300
     23 C23        -7.9036    1.4273   51.2506 C.2     1  <0>        -0.0600
     24 C24       -10.5650    0.3604   52.4288 C.2     1  <0>        -0.3200
     25 S25       -11.7184   -0.2921   53.5894 S.3     1  <0>         0.2500
     26 H26        -7.2548   -1.0668   58.7739 H       1  <0>         0.0600
     27 H27        -8.5414   -0.7517   57.5850 H       1  <0>         0.0600
     28 H28        -8.4962    0.1635   59.1110 H       1  <0>         0.0600
     29 H29        -8.9892   -2.8374   58.8491 H       1  <0>         0.0600
     30 H30        -8.9440   -1.9222   60.3751 H       1  <0>         0.0700
     31 H31       -11.3473   -2.9991   60.5197 H       1  <0>         0.0700
     32 H32       -11.0378   -1.4069   61.2529 H       1  <0>         0.0600
     33 H33       -12.4889   -1.6596   60.2535 H       1  <0>         0.0500
     34 H34       -14.2998   -3.2571   57.2068 H       1  <0>         0.0900
     35 H35       -13.0494   -2.6501   56.0949 H       1  <0>         0.0500
     36 H36       -12.8038   -4.1885   56.9559 H       1  <0>         0.0500
     37 H37       -10.4527   -2.8622   55.4776 H       1  <0>         0.4200
     38 H38        -6.8581   -1.5063   52.2891 H       1  <0>         0.1800
     39 H39        -5.2345   -0.1966   50.8183 H       1  <0>         0.4200
     40 H40        -4.5112    2.6924   48.5532 H       1  <0>         0.4000
     41 H41        -4.5898    1.1175   49.1331 H       1  <0>         0.4100
     42 H42        -8.5918    2.2533   51.1485 H       1  <0>         0.1500
     43 H43       -10.7984    1.0129   51.6006 H       1  <0>         0.1800
@<TRIPOS>BOND
     1     1     2    1
     2     1    26    1
     3     1    27    1
     4     1    28    1
     5     2     3    1
     6     2    29    1
     7     2    30    1
     8     3     4    1
     9     3     5    1
    10     3     6    1
    11     5    31    1
    12     5    32    1
    13     5    33    1
    14     6     7    1
    15     6     8    1
    16     6    10    1
    17     8     9    1
    18     9    34    1
    19     9    35    1
    20     9    36    1
    21    10    11    2
    22    10    12   am
    23    12    13    1
    24    12    37    1
    25    13    25    1
    26    13    14    2
    27    14    15    1
    28    15    16    1
    29    15    24    2
    30    16    23    1
    31    16    17    2
    32    17    18    1
    33    17    38    1
    34    18    19    1
    35    18    39    1
    36    19    20    1
    37    19    23    2
    38    20    21   am
    39    20    22    2
    40    21    40    1
    41    21    41    1
    42    23    42    1
    43    24    25    1
    44    24    43    1
@<TRIPOS>SUBSTRUCTURE
     1 <0>         1 TEMP              0 ****  ****    0 ROOT


##########                                Name:    ZINC001310073555
##########                DOCK_Rotatable_Bonds:                  12
##########                         Heavy_Atoms:                  27
##########                    Molecular_Weight:             380.484
##########                DOCK_Rotatable_Bonds:                  12
##########                       Formal_Charge:          0.00999888
##########                     HBond_Acceptors:                   7
##########                        HBond_Donors:                   2
##########                         Heavy_Atoms:                  27
##########                          Grid_Score:          -30.397276
##########                     Grid_vdw_energy:          -30.485476
##########                      Grid_es_energy:            0.088199
##########           Internal_energy_repulsive:           54.554508

@<TRIPOS>MOLECULE
ZINC001310073555
 59 59 1 0 0
SMALL
USER_CHARGES


@<TRIPOS>ATOM
      1 C1        -13.1850   -0.2909   59.0033 C.3     1  ZINC001310073555   -0.1600
      2 C2        -12.0743   -0.1754   57.9574 C.3     1  ZINC001310073555   -0.1100
      3 C3        -10.8439   -0.9508   58.4325 C.3     1  ZINC001310073555   -0.0600
      4 C4        -11.1215   -2.4527   58.3427 C.3     1  ZINC001310073555   -0.1100
      5 C5         -9.8647   -3.2285   58.7422 C.3     1  ZINC001310073555   -0.1600
      6 C6         -9.6465   -0.5996   57.5472 C.3     1  ZINC001310073555    0.1600
      7 N7         -9.9038   -1.0497   56.1770 N.am    1  ZINC001310073555   -0.7400
      8 C8         -9.2858   -0.4462   55.1423 C.2     1  ZINC001310073555    0.7100
      9 O9         -8.5136    0.4707   55.3462 O.2     1  ZINC001310073555   -0.5700
     10 N10        -9.5236   -0.8592   53.8816 N.am    1  ZINC001310073555   -0.6700
     11 C11        -8.8800   -0.2308   52.8039 C.ar    1  ZINC001310073555    0.1000
     12 C12        -7.7649   -0.8165   52.2247 C.ar    1  ZINC001310073555   -0.0400
     13 C13        -7.1310   -0.1978   51.1635 C.ar    1  ZINC001310073555   -0.2200
     14 C14        -7.6088    1.0092   50.6756 C.ar    1  ZINC001310073555    0.1500
     15 O15        -6.9831    1.6153   49.6316 O.3     1  ZINC001310073555   -0.3200
     16 C16        -5.9395    2.5386   49.9482 C.3     1  ZINC001310073555    0.0300
     17 C17        -8.7248    1.5985   51.2514 C.ar    1  ZINC001310073555   -0.2300
     18 C18        -9.3646    0.9790   52.3117 C.ar    1  ZINC001310073555    0.1400
     19 O19       -10.4587    1.5551   52.8775 O.3     1  ZINC001310073555   -0.3100
     20 C20       -11.6579    1.5720   52.1006 C.3     1  ZINC001310073555    0.0300
     21 C21       -10.5379   -0.5812   59.8611 C.2     1  ZINC001310073555    0.4800
     22 O22       -10.9925   -1.2400   60.7662 O.2     1  ZINC001310073555   -0.5000
     23 O23        -9.7603    0.4798   60.1281 O.3     1  ZINC001310073555   -0.3400
     24 C24        -9.5232    0.7879   61.5270 C.3     1  ZINC001310073555    0.1200
     25 C25        -8.8514   -0.4074   62.2057 C.3     1  ZINC001310073555   -0.1800
     26 C26        -8.6120    2.0126   61.6321 C.3     1  ZINC001310073555   -0.1400
     27 C27       -10.8563    1.0834   62.2172 C.3     1  ZINC001310073555   -0.1800
     28 H28       -14.0617    0.2615   58.6648 H       1  ZINC001310073555    0.0600
     29 H29       -13.4474   -1.3400   59.1404 H       1  ZINC001310073555    0.0500
     30 H30       -12.8376    0.1234   59.9497 H       1  ZINC001310073555    0.0600
     31 H31       -12.4218   -0.5897   57.0110 H       1  ZINC001310073555    0.0800
     32 H32       -11.8121    0.8737   57.8204 H       1  ZINC001310073555    0.0800
     33 H33       -11.9382   -2.7122   59.0163 H       1  ZINC001310073555    0.0800
     34 H34       -11.3980   -2.7105   57.3203 H       1  ZINC001310073555    0.0800
     35 H35        -9.0481   -2.9690   58.0685 H       1  ZINC001310073555    0.0600
     36 H36        -9.5882   -2.9707   59.7646 H       1  ZINC001310073555    0.0500
     37 H37       -10.0625   -4.2984   58.6781 H       1  ZINC001310073555    0.0600
     38 H38        -9.4948    0.4797   57.5526 H       1  ZINC001310073555    0.0800
     39 H39        -8.7539   -1.0940   57.9305 H       1  ZINC001310073555    0.0800
     40 H40       -10.5188   -1.7819   56.0143 H       1  ZINC001310073555    0.4000
     41 H41       -10.1396   -1.5906   53.7188 H       1  ZINC001310073555    0.4100
     42 H42        -7.3910   -1.7564   52.6030 H       1  ZINC001310073555    0.1500
     43 H43        -6.2620   -0.6549   50.7137 H       1  ZINC001310073555    0.1300
     44 H44        -6.3426    3.3475   50.5576 H       1  ZINC001310073555    0.0600
     45 H45        -5.1541    2.0236   50.5013 H       1  ZINC001310073555    0.0600
     46 H46        -5.5258    2.9491   49.0271 H       1  ZINC001310073555    0.1000
     47 H47        -9.0963    2.5385   50.8708 H       1  ZINC001310073555    0.1400
     48 H48       -12.4513    2.0587   52.6675 H       1  ZINC001310073555    0.1000
     49 H49       -11.4835    2.1208   51.1751 H       1  ZINC001310073555    0.0600
     50 H50       -11.9535    0.5493   51.8662 H       1  ZINC001310073555    0.0600
     51 H51        -7.9016   -0.6179   61.7141 H       1  ZINC001310073555    0.0600
     52 H52        -8.6733   -0.1761   63.2560 H       1  ZINC001310073555    0.0700
     53 H53        -9.5005   -1.2798   62.1309 H       1  ZINC001310073555    0.0800
     54 H54        -9.0907    2.8641   61.1486 H       1  ZINC001310073555    0.0700
     55 H55        -8.4340    2.2439   62.6824 H       1  ZINC001310073555    0.0800
     56 H56        -7.6623    1.8021   61.1404 H       1  ZINC001310073555    0.0700
     57 H57       -11.5054    0.2110   62.1424 H       1  ZINC001310073555    0.0800
     58 H58       -10.6783    1.3148   63.2674 H       1  ZINC001310073555    0.0700
     59 H59       -11.3349    1.9351   61.7337 H       1  ZINC001310073555    0.0600
@<TRIPOS>BOND
     1     1     2    1
     2     1    28    1
     3     1    29    1
     4     1    30    1
     5     2     3    1
     6     2    31    1
     7     2    32    1
     8     3     4    1
     9     3     6    1
    10     3    21    1
    11     4     5    1
    12     4    33    1
    13     4    34    1
    14     5    35    1
    15     5    36    1
    16     5    37    1
    17     6     7    1
    18     6    38    1
    19     6    39    1
    20     7     8   am
    21     7    40    1
    22     8     9    2
    23     8    10   am
    24    10    11    1
    25    10    41    1
    26    11    18   ar
    27    11    12   ar
    28    12    13   ar
    29    12    42    1
    30    13    14   ar
    31    13    43    1
    32    14    15    1
    33    14    17   ar
    34    15    16    1
    35    16    44    1
    36    16    45    1
    37    16    46    1
    38    17    18   ar
    39    17    47    1
    40    18    19    1
    41    19    20    1
    42    20    48    1
    43    20    49    1
    44    20    50    1
    45    21    22    2
    46    21    23    1
    47    23    24    1
    48    24    25    1
    49    24    26    1
    50    24    27    1
    51    25    51    1
    52    25    52    1
    53    25    53    1
    54    26    54    1
    55    26    55    1
    56    26    56    1
    57    27    57    1
    58    27    58    1
    59    27    59    1
@<TRIPOS>SUBSTRUCTURE
     1 ZINC001310073555        1 TEMP              0 ****  ****    0 ROOT


##########                                Name:    ZINC000867639366
##########                DOCK_Rotatable_Bonds:                   6
##########                         Heavy_Atoms:                  25
##########                    Molecular_Weight:             388.509
##########                DOCK_Rotatable_Bonds:                   6
##########                       Formal_Charge:          0.00999961
##########                     HBond_Acceptors:                   9
##########                        HBond_Donors:                   1
##########                         Heavy_Atoms:                  25
##########                          Grid_Score:          -30.382042
##########                     Grid_vdw_energy:          -29.637306
##########                      Grid_es_energy:           -0.744735
##########           Internal_energy_repulsive:           41.620110

@<TRIPOS>MOLECULE
ZINC000867639366
 49 51 1 0 0
SMALL
USER_CHARGES


@<TRIPOS>ATOM
      1 C1         -3.4309    1.5851   49.6921 C.3     1  ZINC000867639366    0.0300
      2 O2         -4.6586    1.5813   50.4233 O.3     1  ZINC000867639366   -0.3800
      3 C3         -5.6302    2.5072   49.9326 C.3     1  ZINC000867639366    0.0800
      4 H4         -5.3909    2.7742   48.9032 H       1  ZINC000867639366    0.0800
      5 C5         -5.6208    3.7665   50.8022 C.3     1  ZINC000867639366   -0.1400
      6 C6         -5.9235    3.3882   52.2539 C.3     1  ZINC000867639366   -0.1200
      7 C7         -7.3170    2.7566   52.3328 C.3     1  ZINC000867639366    0.1500
      8 H8         -8.0700    3.4985   52.0672 H       1  ZINC000867639366    0.0800
      9 C9         -7.5722    2.2533   53.7550 C.3     1  ZINC000867639366   -0.1900
     10 N10        -7.3801    1.6313   51.3902 N.am    1  ZINC000867639366   -0.9800
     11 S11        -7.8485    0.1275   51.9018 S.o2    1  ZINC000867639366    2.6900
     12 O12        -7.9489   -0.6795   50.7365 O.2     1  ZINC000867639366   -0.9500
     13 O13        -7.0136   -0.1995   53.0041 O.2     1  ZINC000867639366   -0.9400
     14 C14        -9.4824    0.2803   52.5434 C.ar    1  ZINC000867639366   -0.6300
     15 C15        -9.9225   -0.5857   53.5269 C.ar    1  ZINC000867639366   -0.0500
     16 C16       -11.2044   -0.4659   54.0303 C.ar    1  ZINC000867639366   -0.0400
     17 C17       -12.0460    0.5202   53.5505 C.ar    1  ZINC000867639366   -0.6300
     18 S18       -13.6801    0.6727   54.1917 S.o2    1  ZINC000867639366    2.7000
     19 O19       -13.7804   -0.2588   55.2600 O.2     1  ZINC000867639366   -0.9400
     20 O20       -13.9213    2.0643   54.3486 O.2     1  ZINC000867639366   -0.9500
     21 N21       -14.7196    0.1477   53.0143 N.am    1  ZINC000867639366   -1.0800
     22 C22       -14.7488    0.8169   51.7115 C.3     1  ZINC000867639366    0.0800
     23 C23       -13.8237    0.2769   50.6190 C.3     1  ZINC000867639366   -0.1800
     24 C24       -15.3326    0.0388   50.5305 C.3     1  ZINC000867639366   -0.1900
     25 C25       -11.6054    1.3871   52.5681 C.ar    1  ZINC000867639366   -0.0400
     26 C26       -10.3222    1.2698   52.0674 C.ar    1  ZINC000867639366   -0.0400
     27 C27        -7.0201    1.8653   49.9844 C.3     1  ZINC000867639366    0.1200
     28 H28        -3.6267    1.3247   48.6520 H       1  ZINC000867639366    0.0400
     29 H29        -2.9824    2.5774   49.7401 H       1  ZINC000867639366    0.0400
     30 H30        -2.7470    0.8560   50.1267 H       1  ZINC000867639366    0.0900
     31 H31        -4.6398    4.2386   50.7470 H       1  ZINC000867639366    0.0700
     32 H32        -6.3790    4.4619   50.4425 H       1  ZINC000867639366    0.0700
     33 H33        -5.1797    2.6737   52.6064 H       1  ZINC000867639366    0.0800
     34 H34        -5.8936    4.2823   52.8767 H       1  ZINC000867639366    0.0800
     35 H35        -7.6525    3.1034   54.4324 H       1  ZINC000867639366    0.0700
     36 H36        -8.5002    1.6821   53.7771 H       1  ZINC000867639366    0.0600
     37 H37        -6.7455    1.6157   54.0686 H       1  ZINC000867639366    0.1000
     38 H38        -9.2651   -1.3563   53.9017 H       1  ZINC000867639366    0.1600
     39 H39       -11.5485   -1.1430   54.7981 H       1  ZINC000867639366    0.1500
     40 H40       -15.3091   -0.6029   53.1873 H       1  ZINC000867639366    0.4200
     41 H41       -14.9206    1.8930   51.7395 H       1  ZINC000867639366    0.1400
     42 H42       -13.3865    0.9977   49.9281 H       1  ZINC000867639366    0.1100
     43 H43       -13.1935   -0.5763   50.8696 H       1  ZINC000867639366    0.1000
     44 H44       -15.6948   -0.9710   50.7229 H       1  ZINC000867639366    0.1000
     45 H45       -15.8880    0.6030   49.7814 H       1  ZINC000867639366    0.1000
     46 H46       -12.2627    2.1578   52.1935 H       1  ZINC000867639366    0.1500
     47 H47        -9.9780    1.9470   51.2998 H       1  ZINC000867639366    0.1500
     48 H48        -7.7490    2.5345   49.5272 H       1  ZINC000867639366    0.0900
     49 H49        -7.0053    0.9166   49.4482 H       1  ZINC000867639366    0.1000
@<TRIPOS>BOND
     1     1     2    1
     2     1    28    1
     3     1    29    1
     4     1    30    1
     5     2     3    1
     6     3     4    1
     7     3    27    1
     8     3     5    1
     9     5     6    1
    10     5    31    1
    11     5    32    1
    12     6     7    1
    13     6    33    1
    14     6    34    1
    15     7     8    1
    16     7     9    1
    17     7    10    1
    18     9    35    1
    19     9    36    1
    20     9    37    1
    21    10    11   am
    22    10    27    1
    23    11    12    2
    24    11    13    2
    25    11    14    1
    26    14    26   ar
    27    14    15   ar
    28    15    16   ar
    29    15    38    1
    30    16    17   ar
    31    16    39    1
    32    17    18    1
    33    17    25   ar
    34    18    19    2
    35    18    20    2
    36    18    21   am
    37    21    22    1
    38    21    40    1
    39    22    24    1
    40    22    23    1
    41    22    41    1
    42    23    24    1
    43    23    42    1
    44    23    43    1
    45    24    44    1
    46    24    45    1
    47    25    26   ar
    48    25    46    1
    49    26    47    1
    50    27    48    1
    51    27    49    1
@<TRIPOS>SUBSTRUCTURE
     1 ZINC000867639366        1 TEMP              0 ****  ****    0 ROOT


##########                                Name:    ZINC000506156755
##########                DOCK_Rotatable_Bonds:                   7
##########                         Heavy_Atoms:                  30
##########                    Molecular_Weight:             400.434
##########                DOCK_Rotatable_Bonds:                   7
##########                       Formal_Charge:          -0.0200001
##########                     HBond_Acceptors:                   6
##########                        HBond_Donors:                   1
##########                         Heavy_Atoms:                  30
##########                          Grid_Score:          -30.376303
##########                     Grid_vdw_energy:          -29.488279
##########                      Grid_es_energy:           -0.888024
##########           Internal_energy_repulsive:           11.339252

@<TRIPOS>MOLECULE
ZINC000506156755
 50 53 1 0 0
SMALL
USER_CHARGES


@<TRIPOS>ATOM
      1 C1         -9.3905   -2.3255   59.4067 C.3     1  ZINC000506156755   -0.1600
      2 C2        -10.1096   -1.0699   58.9096 C.3     1  ZINC000506156755    0.1900
      3 H3        -10.9002   -0.8024   59.6106 H       1  ZINC000506156755    0.1000
      4 N4        -10.6933   -1.3310   57.5915 N.am    1  ZINC000506156755   -0.7200
      5 C5        -11.5478   -0.4435   57.0451 C.2     1  ZINC000506156755    0.5000
      6 O6        -11.8348    0.5705   57.6454 O.2     1  ZINC000506156755   -0.5200
      7 C7        -12.1469   -0.7112   55.6885 C.3     1  ZINC000506156755    0.0900
      8 N8        -11.2303   -0.2385   54.6481 N.am    1  ZINC000506156755   -0.5600
      9 C9        -10.2132   -0.9607   54.1443 C.2     1  ZINC000506156755    0.5800
     10 O10        -9.9140   -2.0904   54.4749 O.2     1  ZINC000506156755   -0.4600
     11 C11        -9.5212   -0.1495   53.1206 C.ar    1  ZINC000506156755   -0.1400
     12 C12        -8.4333   -0.3628   52.2900 C.ar    1  ZINC000506156755   -0.0400
     13 C13        -8.0284    0.6358   51.4175 C.ar    1  ZINC000506156755   -0.0900
     14 C14        -8.7023    1.8413   51.3712 C.ar    1  ZINC000506156755   -0.0900
     15 C15        -9.7929    2.0689   52.1967 C.ar    1  ZINC000506156755   -0.0400
     16 C16       -10.2088    1.0804   53.0735 C.ar    1  ZINC000506156755   -0.1400
     17 C17       -11.2983    0.9727   54.0667 C.2     1  ZINC000506156755    0.5800
     18 O18       -12.1168    1.8342   54.3172 O.2     1  ZINC000506156755   -0.4600
     19 C19        -9.1241    0.0657   58.8066 C.ar    1  ZINC000506156755   -0.1200
     20 C20        -8.2887    0.1587   57.7108 C.ar    1  ZINC000506156755   -0.0800
     21 C21        -7.3845    1.2006   57.6154 C.ar    1  ZINC000506156755   -0.1400
     22 C22        -7.3144    2.1520   58.6162 C.ar    1  ZINC000506156755   -0.0800
     23 C23        -8.1479    2.0637   59.7145 C.ar    1  ZINC000506156755   -0.1900
     24 C24        -9.0595    1.0222   59.8101 C.ar    1  ZINC000506156755    0.1300
     25 O25        -9.8807    0.9333   60.8891 O.3     1  ZINC000506156755   -0.2500
     26 C26        -9.3176    0.6851   62.1006 C.ar    1  ZINC000506156755    0.0800
     27 C27        -9.9502    1.1080   63.2608 C.ar    1  ZINC000506156755   -0.1400
     28 C28        -9.3755    0.8545   64.4912 C.ar    1  ZINC000506156755   -0.1000
     29 C29        -8.1709    0.1800   64.5671 C.ar    1  ZINC000506156755   -0.1200
     30 C30        -7.5384   -0.2425   63.4124 C.ar    1  ZINC000506156755   -0.1000
     31 C31        -8.1115    0.0034   62.1798 C.ar    1  ZINC000506156755   -0.1200
     32 H32       -10.1032   -3.1469   59.4812 H       1  ZINC000506156755    0.0700
     33 H33        -8.5999   -2.5930   58.7057 H       1  ZINC000506156755    0.0600
     34 H34        -8.9562   -2.1313   60.3874 H       1  ZINC000506156755    0.0700
     35 H35       -10.4646   -2.1426   57.1119 H       1  ZINC000506156755    0.4000
     36 H36       -12.3112   -1.7820   55.5688 H       1  ZINC000506156755    0.1300
     37 H37       -13.0978   -0.1856   55.6011 H       1  ZINC000506156755    0.1300
     38 H38        -7.9025   -1.3029   52.3221 H       1  ZINC000506156755    0.1400
     39 H39        -7.1801    0.4705   50.7698 H       1  ZINC000506156755    0.1400
     40 H40        -8.3772    2.6116   50.6877 H       1  ZINC000506156755    0.1400
     41 H41       -10.3162    3.0128   52.1560 H       1  ZINC000506156755    0.1400
     42 H42        -8.3412   -0.5834   56.9277 H       1  ZINC000506156755    0.1300
     43 H43        -6.7319    1.2712   56.7579 H       1  ZINC000506156755    0.1300
     44 H44        -6.6072    2.9646   58.5395 H       1  ZINC000506156755    0.1300
     45 H45        -8.0924    2.8068   60.4961 H       1  ZINC000506156755    0.1300
     46 H46       -10.8909    1.6352   63.2021 H       1  ZINC000506156755    0.1300
     47 H47        -9.8674    1.1838   65.3945 H       1  ZINC000506156755    0.1300
     48 H48        -7.7231   -0.0169   65.5299 H       1  ZINC000506156755    0.1300
     49 H49        -6.5975   -0.7692   63.4744 H       1  ZINC000506156755    0.1300
     50 H50        -7.6173   -0.3271   61.2783 H       1  ZINC000506156755    0.1300
@<TRIPOS>BOND
     1     1     2    1
     2     1    32    1
     3     1    33    1
     4     1    34    1
     5     2     3    1
     6     2     4    1
     7     2    19    1
     8     4     5   am
     9     4    35    1
    10     5     6    2
    11     5     7    1
    12     7     8    1
    13     7    36    1
    14     7    37    1
    15     8    17   am
    16     8     9   am
    17     9    10    2
    18     9    11    1
    19    11    16   ar
    20    11    12   ar
    21    12    13   ar
    22    12    38    1
    23    13    14   ar
    24    13    39    1
    25    14    15   ar
    26    14    40    1
    27    15    16   ar
    28    15    41    1
    29    16    17    1
    30    17    18    2
    31    19    24   ar
    32    19    20   ar
    33    20    21   ar
    34    20    42    1
    35    21    22   ar
    36    21    43    1
    37    22    23   ar
    38    22    44    1
    39    23    24   ar
    40    23    45    1
    41    24    25    1
    42    25    26    1
    43    26    31   ar
    44    26    27   ar
    45    27    28   ar
    46    27    46    1
    47    28    29   ar
    48    28    47    1
    49    29    30   ar
    50    29    48    1
    51    30    31   ar
    52    30    49    1
    53    31    50    1
@<TRIPOS>SUBSTRUCTURE
     1 ZINC000506156755        1 TEMP              0 ****  ****    0 ROOT


##########                                Name:    ZINC000465392830
##########                DOCK_Rotatable_Bonds:                   8
##########                         Heavy_Atoms:                  29
##########                    Molecular_Weight:             419.588
##########                DOCK_Rotatable_Bonds:                   8
##########                       Formal_Charge:           0.0199996
##########                     HBond_Acceptors:                   7
##########                        HBond_Donors:                   0
##########                         Heavy_Atoms:                  29
##########                          Grid_Score:          -30.370831
##########                     Grid_vdw_energy:          -29.207434
##########                      Grid_es_energy:           -1.163396
##########           Internal_energy_repulsive:           24.356634

@<TRIPOS>MOLECULE
ZINC000465392830
 62 64 1 0 0
SMALL
USER_CHARGES


@<TRIPOS>ATOM
      1 C1         -8.6808    3.3391   61.8222 C.3     1  ZINC000465392830    0.0400
      2 O2         -8.7027    1.9359   61.4494 O.3     1  ZINC000465392830   -0.3600
      3 C3         -9.2218    1.6322   60.2494 C.2     1  ZINC000465392830    0.4600
      4 O4         -9.6073    2.5129   59.5175 O.2     1  ZINC000465392830   -0.4900
      5 C5         -9.3237    0.1928   59.8149 C.3     1  ZINC000465392830    0.1500
      6 H6         -8.5464   -0.3969   60.3010 H       1  ZINC000465392830    0.1100
      7 C7        -10.7140   -0.3685   60.1802 C.3     1  ZINC000465392830   -0.1100
      8 C8        -11.0566   -1.2675   58.9628 C.3     1  ZINC000465392830   -0.0900
      9 H9        -10.5905   -2.2482   59.0580 H       1  ZINC000465392830    0.1000
     10 C10       -12.5708   -1.3980   58.7864 C.3     1  ZINC000465392830   -0.0800
     11 C11       -12.8693   -2.3839   57.6552 C.3     1  ZINC000465392830   -0.1200
     12 C12       -14.3834   -2.5145   57.4787 C.3     1  ZINC000465392830   -0.1200
     13 C13       -15.0062   -3.0265   58.7791 C.3     1  ZINC000465392830   -0.1200
     14 C14       -14.7077   -2.0405   59.9102 C.3     1  ZINC000465392830   -0.1200
     15 C15       -13.1936   -1.9100   60.0867 C.3     1  ZINC000465392830   -0.1200
     16 C16       -10.4280   -0.4647   57.7967 C.3     1  ZINC000465392830    0.1000
     17 N17        -9.1818    0.1001   58.3545 N.am    1  ZINC000465392830   -0.6100
     18 C18        -8.0995    0.4706   57.6420 C.2     1  ZINC000465392830    0.5400
     19 O19        -7.1286    0.9274   58.2073 O.2     1  ZINC000465392830   -0.5300
     20 C20        -8.0957    0.3173   56.1428 C.3     1  ZINC000465392830   -0.1300
     21 C21        -8.8504    1.4875   55.5085 C.3     1  ZINC000465392830   -0.0600
     22 C22        -8.4720    1.5999   54.0541 C.ar    1  ZINC000465392830   -0.2000
     23 C23        -9.2092    0.9473   53.0783 C.ar    1  ZINC000465392830    0.2000
     24 C24       -10.4053    0.1124   53.4569 C.3     1  ZINC000465392830   -0.1100
     25 N25        -8.8504    1.0665   51.8109 N.ar    1  ZINC000465392830   -0.5000
     26 C26        -7.7998    1.7995   51.4703 C.ar    1  ZINC000465392830    0.3000
     27 S27        -7.3574    1.9310   49.7698 S.3     1  ZINC000465392830    0.0000
     28 C28        -5.6199    2.4110   49.9332 C.3     1  ZINC000465392830   -0.1400
     29 N29        -7.0744    2.4364   52.3788 N.ar    1  ZINC000465392830   -0.5300
     30 C30        -7.3827    2.3628   53.6628 C.ar    1  ZINC000465392830    0.2000
     31 C31        -6.5528    3.0898   54.6893 C.3     1  ZINC000465392830   -0.1100
     32 H32        -8.0894    3.8985   61.0973 H       1  ZINC000465392830    0.0600
     33 H33        -9.6994    3.7271   61.8370 H       1  ZINC000465392830    0.0600
     34 H34        -8.2372    3.4451   62.8121 H       1  ZINC000465392830    0.1000
     35 H35       -10.6630   -0.9601   61.0943 H       1  ZINC000465392830    0.1000
     36 H36       -11.4409    0.4374   60.2812 H       1  ZINC000465392830    0.0800
     37 H37       -12.9932   -0.4238   58.5402 H       1  ZINC000465392830    0.0800
     38 H38       -12.4256   -2.0192   56.7288 H       1  ZINC000465392830    0.0600
     39 H39       -12.4469   -3.3582   57.9014 H       1  ZINC000465392830    0.0700
     40 H40       -14.8059   -1.5402   57.2324 H       1  ZINC000465392830    0.0600
     41 H41       -14.5961   -3.2169   56.6727 H       1  ZINC000465392830    0.0600
     42 H42       -16.0850   -3.1194   58.6533 H       1  ZINC000465392830    0.0600
     43 H43       -14.5838   -4.0007   59.0252 H       1  ZINC000465392830    0.0600
     44 H44       -15.1301   -1.0663   59.6641 H       1  ZINC000465392830    0.0600
     45 H45       -15.1514   -2.4053   60.8367 H       1  ZINC000465392830    0.0600
     46 H46       -12.7712   -2.8842   60.3330 H       1  ZINC000465392830    0.0700
     47 H47       -12.9809   -1.2076   60.8927 H       1  ZINC000465392830    0.0600
     48 H48       -10.2020   -1.1254   56.9598 H       1  ZINC000465392830    0.0900
     49 H49       -11.0994    0.3336   57.4805 H       1  ZINC000465392830    0.0800
     50 H50        -7.0674    0.3092   55.7810 H       1  ZINC000465392830    0.1000
     51 H51        -8.5835   -0.6191   55.8721 H       1  ZINC000465392830    0.1000
     52 H52        -9.9235    1.3160   55.5926 H       1  ZINC000465392830    0.0900
     53 H53        -8.5884    2.4111   56.0246 H       1  ZINC000465392830    0.0900
     54 H54       -11.2992    0.7360   53.4540 H       1  ZINC000465392830    0.0900
     55 H55       -10.5252   -0.6978   52.7377 H       1  ZINC000465392830    0.0900
     56 H56       -10.2566   -0.3048   54.4528 H       1  ZINC000465392830    0.0900
     57 H57        -5.5526    3.3503   50.4823 H       1  ZINC000465392830    0.0900
     58 H58        -5.0778    1.6349   50.4733 H       1  ZINC000465392830    0.0900
     59 H59        -5.1832    2.5372   48.9426 H       1  ZINC000465392830    0.1100
     60 H60        -6.9560    4.0913   54.8393 H       1  ZINC000465392830    0.0900
     61 H61        -6.5792    2.5426   55.6316 H       1  ZINC000465392830    0.0900
     62 H62        -5.5230    3.1614   54.3394 H       1  ZINC000465392830    0.0800
@<TRIPOS>BOND
     1     1     2    1
     2     1    32    1
     3     1    33    1
     4     1    34    1
     5     2     3    1
     6     3     4    2
     7     3     5    1
     8     5     6    1
     9     5    17    1
    10     5     7    1
    11     7     8    1
    12     7    35    1
    13     7    36    1
    14     8     9    1
    15     8    10    1
    16     8    16    1
    17    10    15    1
    18    10    11    1
    19    10    37    1
    20    11    12    1
    21    11    38    1
    22    11    39    1
    23    12    13    1
    24    12    40    1
    25    12    41    1
    26    13    14    1
    27    13    42    1
    28    13    43    1
    29    14    15    1
    30    14    44    1
    31    14    45    1
    32    15    46    1
    33    15    47    1
    34    16    17    1
    35    16    48    1
    36    16    49    1
    37    17    18   am
    38    18    19    2
    39    18    20    1
    40    20    21    1
    41    20    50    1
    42    20    51    1
    43    21    22    1
    44    21    52    1
    45    21    53    1
    46    22    30   ar
    47    22    23   ar
    48    23    24    1
    49    23    25   ar
    50    24    54    1
    51    24    55    1
    52    24    56    1
    53    25    26   ar
    54    26    27    1
    55    26    29   ar
    56    27    28    1
    57    28    57    1
    58    28    58    1
    59    28    59    1
    60    29    30   ar
    61    30    31    1
    62    31    60    1
    63    31    61    1
    64    31    62    1
@<TRIPOS>SUBSTRUCTURE
     1 ZINC000465392830        1 TEMP              0 ****  ****    0 ROOT


##########                                Name:    ZINC000555499135
##########                DOCK_Rotatable_Bonds:                   8
##########                         Heavy_Atoms:                  26
##########                    Molecular_Weight:             377.554
##########                DOCK_Rotatable_Bonds:                   8
##########                       Formal_Charge:           0.0399999
##########                     HBond_Acceptors:                   7
##########                        HBond_Donors:                   0
##########                         Heavy_Atoms:                  26
##########                          Grid_Score:          -30.353447
##########                     Grid_vdw_energy:          -29.836172
##########                      Grid_es_energy:           -0.517275
##########           Internal_energy_repulsive:           12.124154

@<TRIPOS>MOLECULE
ZINC000555499135
 57 59 1 0 0
SMALL
USER_CHARGES


@<TRIPOS>ATOM
      1 C1         -4.3175    1.9255   49.7044 C.3     1  ZINC000555499135   -0.1500
      2 C2         -5.0698    2.6370   50.8307 C.3     1  ZINC000555499135   -0.0500
      3 C3         -6.3180    1.8630   51.1683 C.2     1  ZINC000555499135   -0.2100
      4 C4         -7.5397    2.0876   50.6755 C.2     1  ZINC000555499135    0.0300
      5 N5         -8.4701    1.2712   51.1280 N.2     1  ZINC000555499135   -0.4500
      6 C6         -8.1010    0.3704   51.9749 C.2     1  ZINC000555499135    0.0400
      7 C7         -9.0155   -0.6500   52.6022 C.3     1  ZINC000555499135    0.1500
      8 N8        -10.1076    0.0372   53.3043 N.3     1  ZINC000555499135   -0.4500
      9 C9        -11.3107    0.1086   52.4644 C.3     1  ZINC000555499135    0.0100
     10 C10       -10.3835   -0.5768   54.5156 C.2     1  ZINC000555499135    0.3500
     11 N11       -10.2887   -1.8587   54.7797 N.2     1  ZINC000555499135   -0.3100
     12 N12       -10.6201   -2.0783   56.0019 N.2     1  ZINC000555499135   -0.2900
     13 C13       -10.9432   -0.9589   56.5854 C.2     1  ZINC000555499135    0.2100
     14 C14       -11.3871   -0.7929   58.0159 C.3     1  ZINC000555499135   -0.0300
     15 C15       -10.8091   -1.9274   58.8642 C.3     1  ZINC000555499135   -0.0900
     16 C16        -9.3534   -1.6121   59.2138 C.3     1  ZINC000555499135   -0.1500
     17 C17       -11.6239   -2.0678   60.1516 C.3     1  ZINC000555499135   -0.1500
     18 N18       -10.7990    0.0381   55.6607 N.pl3   1  ZINC000555499135   -0.4600
     19 C19       -11.0474    1.4685   55.8563 C.3     1  ZINC000555499135    0.1100
     20 C20        -9.7577    2.1522   56.3144 C.3     1  ZINC000555499135    0.0700
     21 H21        -9.9089    2.5898   57.3013 H       1  ZINC000555499135    0.0700
     22 C22        -9.3826    3.2537   55.3196 C.3     1  ZINC000555499135   -0.1500
     23 C23        -8.0594    3.8928   55.7523 C.3     1  ZINC000555499135   -0.1200
     24 C24        -6.9859    2.8041   55.8462 C.3     1  ZINC000555499135   -0.1600
     25 C25        -7.4536    1.7199   56.8207 C.3     1  ZINC000555499135    0.0600
     26 O26        -8.7038    1.1891   56.3767 O.3     1  ZINC000555499135   -0.3700
     27 S27        -6.4229    0.4973   52.2766 S.3     1  ZINC000555499135    0.1200
     28 H28        -4.0456    0.9205   50.0274 H       1  ZINC000555499135    0.0600
     29 H29        -4.9561    1.8637   48.8232 H       1  ZINC000555499135    0.0600
     30 H30        -3.4147    2.4852   49.4603 H       1  ZINC000555499135    0.0700
     31 H31        -4.4312    2.6988   51.7118 H       1  ZINC000555499135    0.0900
     32 H32        -5.3416    3.6420   50.5078 H       1  ZINC000555499135    0.0800
     33 H33        -7.7477    2.8736   49.9648 H       1  ZINC000555499135    0.1800
     34 H34        -9.4303   -1.2924   51.8255 H       1  ZINC000555499135    0.0800
     35 H35        -8.4517   -1.2556   53.3119 H       1  ZINC000555499135    0.1200
     36 H36       -11.7068   -0.8953   52.3109 H       1  ZINC000555499135    0.0500
     37 H37       -12.0626    0.7243   52.9581 H       1  ZINC000555499135    0.0800
     38 H38       -11.0555    0.5498   51.5008 H       1  ZINC000555499135    0.0900
     39 H39       -11.0315    0.1640   58.3979 H       1  ZINC000555499135    0.1000
     40 H40       -12.4757   -0.8215   58.0640 H       1  ZINC000555499135    0.1000
     41 H41       -10.8539   -2.8603   58.3023 H       1  ZINC000555499135    0.0800
     42 H42        -8.7814   -1.4726   58.2964 H       1  ZINC000555499135    0.0500
     43 H43        -9.3121   -0.7004   59.8098 H       1  ZINC000555499135    0.0600
     44 H44        -8.9294   -2.4386   59.7841 H       1  ZINC000555499135    0.0600
     45 H45       -12.6610   -2.2924   59.9025 H       1  ZINC000555499135    0.0600
     46 H46       -11.2121   -2.8760   60.7559 H       1  ZINC000555499135    0.0600
     47 H47       -11.5790   -1.1347   60.7134 H       1  ZINC000555499135    0.0600
     48 H48       -11.3795    1.9113   54.9173 H       1  ZINC000555499135    0.1100
     49 H49       -11.8190    1.6030   56.6144 H       1  ZINC000555499135    0.1200
     50 H50        -9.2709    2.8232   54.3245 H       1  ZINC000555499135    0.0800
     51 H51       -10.1653    4.0121   55.3037 H       1  ZINC000555499135    0.0800
     52 H52        -7.7578    4.6397   55.0180 H       1  ZINC000555499135    0.0700
     53 H53        -8.1844    4.3665   56.7260 H       1  ZINC000555499135    0.0600
     54 H54        -6.8259    2.3645   54.8617 H       1  ZINC000555499135    0.0700
     55 H55        -6.0547    3.2409   56.2070 H       1  ZINC000555499135    0.0800
     56 H56        -6.7126    0.9215   56.8590 H       1  ZINC000555499135    0.1000
     57 H57        -7.5746    2.1518   57.8142 H       1  ZINC000555499135    0.0500
@<TRIPOS>BOND
     1     1     2    1
     2     1    28    1
     3     1    29    1
     4     1    30    1
     5     2     3    1
     6     2    31    1
     7     2    32    1
     8     3    27    1
     9     3     4    2
    10     4     5    1
    11     4    33    1
    12     5     6    2
    13     6     7    1
    14     6    27    1
    15     7     8    1
    16     7    34    1
    17     7    35    1
    18     8     9    1
    19     8    10    1
    20     9    36    1
    21     9    37    1
    22     9    38    1
    23    10    18    1
    24    10    11    2
    25    11    12    1
    26    12    13    2
    27    13    14    1
    28    13    18    1
    29    14    15    1
    30    14    39    1
    31    14    40    1
    32    15    16    1
    33    15    17    1
    34    15    41    1
    35    16    42    1
    36    16    43    1
    37    16    44    1
    38    17    45    1
    39    17    46    1
    40    17    47    1
    41    18    19    1
    42    19    20    1
    43    19    48    1
    44    19    49    1
    45    20    21    1
    46    20    26    1
    47    20    22    1
    48    22    23    1
    49    22    50    1
    50    22    51    1
    51    23    24    1
    52    23    52    1
    53    23    53    1
    54    24    25    1
    55    24    54    1
    56    24    55    1
    57    25    26    1
    58    25    56    1
    59    25    57    1
@<TRIPOS>SUBSTRUCTURE
     1 ZINC000555499135        1 TEMP              0 ****  ****    0 ROOT


##########                                Name:    ZINC000442864105
##########                DOCK_Rotatable_Bonds:                   7
##########                         Heavy_Atoms:                  30
##########                    Molecular_Weight:              414.39
##########                DOCK_Rotatable_Bonds:                   7
##########                       Formal_Charge:           0.0200001
##########                     HBond_Acceptors:                  10
##########                        HBond_Donors:                   2
##########                         Heavy_Atoms:                  30
##########                          Grid_Score:          -30.326920
##########                     Grid_vdw_energy:          -28.082619
##########                      Grid_es_energy:           -2.244302
##########           Internal_energy_repulsive:            7.753449

@<TRIPOS>MOLECULE
ZINC000442864105
 47 50 1 0 0
SMALL
USER_CHARGES


@<TRIPOS>ATOM
      1 C1         -2.2346   -0.0761   48.4250 C.3     1  ZINC000442864105    0.0800
      2 N2         -1.3866    0.8532   49.1757 N.pl3   1  ZINC000442864105   -0.4900
      3 C3         -0.0166    0.8489   49.1697 C.2     1  ZINC000442864105    0.0300
      4 C4          0.4472    1.8280   49.9614 C.2     1  ZINC000442864105   -0.1900
      5 C5         -0.7197    2.5162   50.5209 C.ar    1  ZINC000442864105   -0.1600
      6 C6         -0.8821    3.5940   51.3936 C.ar    1  ZINC000442864105   -0.0200
      7 C7         -2.1373    4.0108   51.7335 C.ar    1  ZINC000442864105   -0.2100
      8 C8         -3.2601    3.3675   51.2149 C.ar    1  ZINC000442864105    0.2400
      9 N9         -4.5381    3.8064   51.5727 N.pl3   1  ZINC000442864105   -0.7400
     10 C10        -4.7828    4.3290   52.9193 C.3     1  ZINC000442864105    0.1100
     11 C11        -6.1519    3.9024   53.3826 C.2     1  ZINC000442864105    0.5100
     12 O12        -7.1102    4.6188   53.1835 O.2     1  ZINC000442864105   -0.5100
     13 N13        -6.3116    2.7247   54.0182 N.am    1  ZINC000442864105   -0.6600
     14 C14        -7.5833    2.3284   54.4485 C.ar    1  ZINC000442864105    0.1600
     15 C15        -8.1640    2.9343   55.5529 C.ar    1  ZINC000442864105   -0.0700
     16 C16        -9.4197    2.5414   55.9760 C.ar    1  ZINC000442864105   -0.1600
     17 C17       -10.0487    3.2011   57.1760 C.3     1  ZINC000442864105    0.5100
     18 F18       -11.4345    3.2701   56.9974 F       1  ZINC000442864105   -0.1700
     19 F19        -9.7630    2.4526   58.3228 F       1  ZINC000442864105   -0.1700
     20 F20        -9.5325    4.4932   57.3218 F       1  ZINC000442864105   -0.1700
     21 C21       -10.1007    1.5449   55.3010 C.ar    1  ZINC000442864105   -0.0600
     22 C22        -9.5295    0.9353   54.2000 C.ar    1  ZINC000442864105   -0.1100
     23 C23        -8.2725    1.3271   53.7648 C.ar    1  ZINC000442864105    0.1500
     24 N24        -7.6909    0.7100   52.6478 N.pl3   1  ZINC000442864105   -0.3300
     25 C25        -6.4747    0.1344   52.5850 C.2     1  ZINC000442864105    0.2800
     26 N26        -6.3058   -0.3250   51.3713 N.2     1  ZINC000442864105   -0.5300
     27 C27        -7.3851   -0.0640   50.6348 C.2     1  ZINC000442864105    0.2300
     28 N28        -8.2630    0.5634   51.3735 N.2     1  ZINC000442864105   -0.3400
     29 C29        -3.1189    2.2977   50.3479 C.ar    1  ZINC000442864105   -0.2100
     30 C30        -1.8475    1.8651   49.9882 C.ar    1  ZINC000442864105    0.1500
     31 H31        -2.4420    0.3376   47.4381 H       1  ZINC000442864105    0.0700
     32 H32        -1.7207   -1.0313   48.3178 H       1  ZINC000442864105    0.0800
     33 H33        -3.1721   -0.2260   48.9605 H       1  ZINC000442864105    0.0800
     34 H34         0.5989    0.1598   48.6105 H       1  ZINC000442864105    0.1700
     35 H35         1.4840    2.0639   50.1509 H       1  ZINC000442864105    0.1400
     36 H36        -0.0166    4.0967   51.7995 H       1  ZINC000442864105    0.1200
     37 H37        -2.2611    4.8443   52.4090 H       1  ZINC000442864105    0.1200
     38 H38        -5.2629    3.7651   50.9294 H       1  ZINC000442864105    0.4100
     39 H39        -4.0296    3.9379   53.6032 H       1  ZINC000442864105    0.1000
     40 H40        -4.7279    5.4175   52.9022 H       1  ZINC000442864105    0.1000
     41 H41        -5.5453    2.1517   54.1774 H       1  ZINC000442864105    0.4300
     42 H42        -7.6349    3.7129   56.0823 H       1  ZINC000442864105    0.1700
     43 H43       -11.0819    1.2418   55.6356 H       1  ZINC000442864105    0.1500
     44 H44       -10.0641    0.1572   53.6755 H       1  ZINC000442864105    0.1500
     45 H45        -5.7631    0.0649   53.3945 H       1  ZINC000442864105    0.2300
     46 H46        -7.5156   -0.3313   49.5965 H       1  ZINC000442864105    0.2300
     47 H47        -3.9928    1.8036   49.9495 H       1  ZINC000442864105    0.1200
@<TRIPOS>BOND
     1     1     2    1
     2     1    31    1
     3     1    32    1
     4     1    33    1
     5     2    30    1
     6     2     3    1
     7     3     4    2
     8     3    34    1
     9     4     5    1
    10     4    35    1
    11     5    30   ar
    12     5     6   ar
    13     6     7   ar
    14     6    36    1
    15     7     8   ar
    16     7    37    1
    17     8     9    1
    18     8    29   ar
    19     9    10    1
    20     9    38    1
    21    10    11    1
    22    10    39    1
    23    10    40    1
    24    11    12    2
    25    11    13   am
    26    13    14    1
    27    13    41    1
    28    14    23   ar
    29    14    15   ar
    30    15    16   ar
    31    15    42    1
    32    16    17    1
    33    16    21   ar
    34    17    18    1
    35    17    19    1
    36    17    20    1
    37    21    22   ar
    38    21    43    1
    39    22    23   ar
    40    22    44    1
    41    23    24    1
    42    24    28    1
    43    24    25    1
    44    25    26    2
    45    25    45    1
    46    26    27    1
    47    27    28    2
    48    27    46    1
    49    29    30   ar
    50    29    47    1
@<TRIPOS>SUBSTRUCTURE
     1 ZINC000442864105        1 TEMP              0 ****  ****    0 ROOT


##########                                Name:    ZINC000675319328
##########                DOCK_Rotatable_Bonds:                   7
##########                         Heavy_Atoms:                  26
##########                    Molecular_Weight:             363.475
##########                DOCK_Rotatable_Bonds:                   7
##########                       Formal_Charge:          -0.0200007
##########                     HBond_Acceptors:                   6
##########                        HBond_Donors:                   1
##########                         Heavy_Atoms:                  26
##########                          Grid_Score:          -30.318939
##########                     Grid_vdw_energy:          -29.661831
##########                      Grid_es_energy:           -0.657109
##########           Internal_energy_repulsive:           26.026903

@<TRIPOS>MOLECULE
ZINC000675319328
 56 58 1 0 0
SMALL
USER_CHARGES


@<TRIPOS>ATOM
      1 C1        -10.3470   -3.7550   58.4170 C.3     1  ZINC000675319328   -0.1600
      2 C2         -9.9536   -2.3910   58.9875 C.3     1  ZINC000675319328    0.1600
      3 H3         -8.9335   -2.4372   59.3688 H       1  ZINC000675319328    0.0900
      4 C4        -10.9069   -2.0198   60.1252 C.3     1  ZINC000675319328   -0.1200
      5 C5        -11.9937   -1.0827   59.5948 C.3     1  ZINC000675319328   -0.1200
      6 H6        -11.5531   -0.2601   59.0313 H       1  ZINC000675319328    0.0800
      7 C7        -13.0188   -1.8611   58.7258 C.3     1  ZINC000675319328   -0.1500
      8 C8        -14.2889   -0.9958   58.9234 C.3     1  ZINC000675319328    0.0500
      9 O9        -14.2317   -0.5518   60.2883 O.3     1  ZINC000675319328   -0.3900
     10 C10       -12.8713   -0.5507   60.7480 C.3     1  ZINC000675319328    0.0500
     11 N11       -10.0351   -1.3782   57.9321 N.am    1  ZINC000675319328   -0.7400
     12 C12        -9.1018   -0.4090   57.8547 C.2     1  ZINC000675319328    0.7000
     13 O13        -8.1922   -0.3752   58.6608 O.2     1  ZINC000675319328   -0.5900
     14 N14        -9.1768    0.5228   56.8838 N.am    1  ZINC000675319328   -0.6200
     15 C15        -8.1399    1.5717   56.8249 C.3     1  ZINC000675319328    0.1300
     16 C16        -7.7008    1.8427   55.3761 C.3     1  ZINC000675319328   -0.1300
     17 C17        -7.6051    0.5352   54.6212 C.3     1  ZINC000675319328    0.0700
     18 N18        -8.8804    0.2719   53.9568 N.3     1  ZINC000675319328   -0.5500
     19 C19        -8.6727   -0.3891   52.6615 C.3     1  ZINC000675319328    0.1000
     20 C20        -7.8630    0.5098   51.7629 C.ar    1  ZINC000675319328   -0.0900
     21 C21        -6.5903    0.1339   51.3755 C.ar    1  ZINC000675319328   -0.0900
     22 C22        -5.8469    0.9575   50.5514 C.ar    1  ZINC000675319328   -0.1500
     23 C23        -6.3774    2.1590   50.1134 C.ar    1  ZINC000675319328    0.1000
     24 F24        -5.6517    2.9646   49.3074 F       1  ZINC000675319328   -0.1400
     25 C25        -7.6524    2.5341   50.5017 C.ar    1  ZINC000675319328   -0.1500
     26 C26        -8.3958    1.7067   51.3219 C.ar    1  ZINC000675319328   -0.0700
     27 C27        -9.8581   -0.4069   54.7213 C.3     1  ZINC000675319328    0.0500
     28 C28       -10.2688    0.4532   55.9342 C.3     1  ZINC000675319328    0.1100
     29 H29        -9.6678   -4.0194   57.6064 H       1  ZINC000675319328    0.0600
     30 H30       -10.2864   -4.5085   59.2022 H       1  ZINC000675319328    0.0700
     31 H31       -11.3671   -3.7088   58.0357 H       1  ZINC000675319328    0.0500
     32 H32       -11.3686   -2.9241   60.5219 H       1  ZINC000675319328    0.0700
     33 H33       -10.3498   -1.5190   60.9170 H       1  ZINC000675319328    0.0900
     34 H34       -12.7141   -1.8784   57.6795 H       1  ZINC000675319328    0.0800
     35 H35       -13.1690   -2.8716   59.1060 H       1  ZINC000675319328    0.0800
     36 H36       -14.2736   -0.1415   58.2467 H       1  ZINC000675319328    0.0600
     37 H37       -15.1844   -1.5949   58.7577 H       1  ZINC000675319328    0.0900
     38 H38       -12.7736   -1.2039   61.6152 H       1  ZINC000675319328    0.0700
     39 H39       -12.5709    0.4634   61.0116 H       1  ZINC000675319328    0.0700
     40 H40       -10.7607   -1.4052   57.2890 H       1  ZINC000675319328    0.3900
     41 H41        -8.5373    2.4909   57.2552 H       1  ZINC000675319328    0.0600
     42 H42        -7.2750    1.2516   57.4060 H       1  ZINC000675319328    0.0900
     43 H43        -8.4316    2.4893   54.8904 H       1  ZINC000675319328    0.0800
     44 H44        -6.7274    2.3329   55.3776 H       1  ZINC000675319328    0.0800
     45 H45        -6.8127    0.6020   53.8757 H       1  ZINC000675319328    0.0700
     46 H46        -7.3837   -0.2728   55.3185 H       1  ZINC000675319328    0.0400
     47 H47        -8.1387   -1.3271   52.8137 H       1  ZINC000675319328    0.0900
     48 H48        -9.6382   -0.5918   52.1981 H       1  ZINC000675319328    0.0400
     49 H49        -6.1767   -0.8033   51.7172 H       1  ZINC000675319328    0.1300
     50 H50        -4.8524    0.6640   50.2495 H       1  ZINC000675319328    0.1400
     51 H51        -8.0672    3.4713   50.1610 H       1  ZINC000675319328    0.1400
     52 H52        -9.3904    1.9990   51.6247 H       1  ZINC000675319328    0.1300
     53 H53       -10.7329   -0.6000   54.1004 H       1  ZINC000675319328    0.0900
     54 H54        -9.4492   -1.3543   55.0724 H       1  ZINC000675319328    0.0300
     55 H55       -11.1385    0.0076   56.4169 H       1  ZINC000675319328    0.0700
     56 H56       -10.5175    1.4596   55.5976 H       1  ZINC000675319328    0.0900
@<TRIPOS>BOND
     1     1     2    1
     2     1    29    1
     3     1    30    1
     4     1    31    1
     5     2     3    1
     6     2     4    1
     7     2    11    1
     8     4     5    1
     9     4    32    1
    10     4    33    1
    11     5     6    1
    12     5    10    1
    13     5     7    1
    14     7     8    1
    15     7    34    1
    16     7    35    1
    17     8     9    1
    18     8    36    1
    19     8    37    1
    20     9    10    1
    21    10    38    1
    22    10    39    1
    23    11    12   am
    24    11    40    1
    25    12    13    2
    26    12    14   am
    27    14    28    1
    28    14    15    1
    29    15    16    1
    30    15    41    1
    31    15    42    1
    32    16    17    1
    33    16    43    1
    34    16    44    1
    35    17    18    1
    36    17    45    1
    37    17    46    1
    38    18    19    1
    39    18    27    1
    40    19    20    1
    41    19    47    1
    42    19    48    1
    43    20    26   ar
    44    20    21   ar
    45    21    22   ar
    46    21    49    1
    47    22    23   ar
    48    22    50    1
    49    23    24    1
    50    23    25   ar
    51    25    26   ar
    52    25    51    1
    53    26    52    1
    54    27    28    1
    55    27    53    1
    56    27    54    1
    57    28    55    1
    58    28    56    1
@<TRIPOS>SUBSTRUCTURE
     1 ZINC000675319328        1 TEMP              0 ****  ****    0 ROOT


##########                                Name:    ZINC001139743874
##########                DOCK_Rotatable_Bonds:                   5
##########                         Heavy_Atoms:                  28
##########                    Molecular_Weight:             382.506
##########                DOCK_Rotatable_Bonds:                   5
##########                       Formal_Charge:           0.0199992
##########                     HBond_Acceptors:                   6
##########                        HBond_Donors:                   0
##########                         Heavy_Atoms:                  28
##########                          Grid_Score:          -30.306620
##########                     Grid_vdw_energy:          -30.323303
##########                      Grid_es_energy:            0.016683
##########           Internal_energy_repulsive:           16.736162

@<TRIPOS>MOLECULE
ZINC001139743874
 58 61 1 0 0
SMALL
USER_CHARGES


@<TRIPOS>ATOM
      1 C1        -11.5484    1.5516   54.9781 C.3     1  ZINC001139743874   -0.1800
      2 C2        -12.6150    1.5945   53.8820 C.3     1  ZINC001139743874    0.1400
      3 C3        -13.5729    0.4142   54.0560 C.3     1  ZINC001139743874   -0.1800
      4 C4        -13.3974    2.9054   53.9829 C.3     1  ZINC001139743874   -0.1400
      5 O5        -11.9758    1.5112   52.5810 O.3     1  ZINC001139743874   -0.3600
      6 C6        -10.9181    0.6853   52.4714 C.2     1  ZINC001139743874    0.6500
      7 O7        -11.0033   -0.4649   52.8538 O.2     1  ZINC001139743874   -0.5700
      8 N8         -9.7649    1.1343   51.9375 N.am    1  ZINC001139743874   -0.5900
      9 C9         -8.6330    0.2716   51.8137 C.3     1  ZINC001139743874    0.1000
     10 C10        -7.7132    0.1804   53.0644 C.3     1  ZINC001139743874   -0.1300
     11 C11        -7.5613    1.5950   53.6950 C.3     1  ZINC001139743874   -0.0900
     12 C12        -7.4611    2.6599   52.6528 C.3     1  ZINC001139743874   -0.0800
     13 C13        -6.3408    3.6875   52.8531 C.3     1  ZINC001139743874    0.0100
     14 N14        -5.5256    2.8122   51.9799 N.3     1  ZINC001139743874   -0.4700
     15 C15        -4.7534    3.6047   51.0138 C.3     1  ZINC001139743874    0.0600
     16 C16        -3.6543    2.7542   50.4309 C.ar    1  ZINC001139743874   -0.1200
     17 C17        -3.9684    1.7007   49.5746 C.ar    1  ZINC001139743874    0.1500
     18 N18        -3.0379    0.9408   49.0495 N.ar    1  ZINC001139743874   -0.4600
     19 C19        -1.7452    1.1448   49.3133 C.ar    1  ZINC001139743874    0.0800
     20 C20        -0.7473    0.3265   48.7469 C.ar    1  ZINC001139743874   -0.0400
     21 C21         0.5558    0.5887   49.0571 C.ar    1  ZINC001139743874   -0.1600
     22 C22         0.8700    1.6424   49.9139 C.ar    1  ZINC001139743874    0.1300
     23 N23        -0.0603    2.4019   50.4393 N.ar    1  ZINC001139743874   -0.4700
     24 C24        -1.3533    2.1980   50.1752 C.ar    1  ZINC001139743874    0.0800
     25 C25        -2.3505    3.0194   50.7373 C.ar    1  ZINC001139743874   -0.0400
     26 C26        -6.7494    2.2595   51.3552 C.3     1  ZINC001139743874    0.0000
     27 C27        -8.8388    3.2908   52.4285 C.3     1  ZINC001139743874   -0.1300
     28 C28        -9.6435    2.5465   51.4555 C.3     1  ZINC001139743874    0.1400
     29 H29       -10.9910    0.6176   54.9063 H       1  ZINC001139743874    0.0900
     30 H30       -10.8660    2.3924   54.8541 H       1  ZINC001139743874    0.0600
     31 H31       -12.0283    1.6141   55.9547 H       1  ZINC001139743874    0.0700
     32 H32       -14.0528    0.4767   55.0327 H       1  ZINC001139743874    0.0700
     33 H33       -14.3329    0.4448   53.2753 H       1  ZINC001139743874    0.0600
     34 H34       -13.0155   -0.5198   53.9842 H       1  ZINC001139743874    0.0900
     35 H35       -12.7150    3.7463   53.8588 H       1  ZINC001139743874    0.0700
     36 H36       -14.1573    2.9360   53.2020 H       1  ZINC001139743874    0.0700
     37 H37       -13.8773    2.9679   54.9596 H       1  ZINC001139743874    0.0800
     38 H38        -8.9922   -0.7308   51.5807 H       1  ZINC001139743874    0.0700
     39 H39        -8.0317    0.6169   50.9726 H       1  ZINC001139743874    0.0900
     40 H40        -8.1569   -0.4974   53.7938 H       1  ZINC001139743874    0.0700
     41 H41        -6.7329   -0.1933   52.7687 H       1  ZINC001139743874    0.0800
     42 H42        -8.4264    1.7967   54.3267 H       1  ZINC001139743874    0.0600
     43 H43        -6.6618    1.6146   54.3104 H       1  ZINC001139743874    0.0700
     44 H44        -6.5566    4.6637   52.4191 H       1  ZINC001139743874    0.0700
     45 H45        -5.9770    3.7472   53.8789 H       1  ZINC001139743874    0.0900
     46 H46        -5.4117    3.9455   50.2146 H       1  ZINC001139743874    0.0600
     47 H47        -4.3170    4.4672   51.5176 H       1  ZINC001139743874    0.0900
     48 H48        -5.0038    1.5053   49.3378 H       1  ZINC001139743874    0.1700
     49 H49        -1.0068   -0.4867   48.0852 H       1  ZINC001139743874    0.1500
     50 H50         1.3435   -0.0205   48.6390 H       1  ZINC001139743874    0.1500
     51 H51         1.9054    1.8377   50.1510 H       1  ZINC001139743874    0.1700
     52 H52        -2.0907    3.8347   51.3962 H       1  ZINC001139743874    0.1400
     53 H53        -6.7105    1.1828   51.1892 H       1  ZINC001139743874    0.1000
     54 H54        -7.0856    2.8148   50.4798 H       1  ZINC001139743874    0.0700
     55 H55        -9.3714    3.3221   53.3789 H       1  ZINC001139743874    0.0700
     56 H56        -8.7052    4.3105   52.0673 H       1  ZINC001139743874    0.0800
     57 H57        -9.1537    2.5662   50.4819 H       1  ZINC001139743874    0.0800
     58 H58       -10.6338    2.9952   51.3780 H       1  ZINC001139743874    0.1000
@<TRIPOS>BOND
     1     1     2    1
     2     1    29    1
     3     1    30    1
     4     1    31    1
     5     2     3    1
     6     2     4    1
     7     2     5    1
     8     3    32    1
     9     3    33    1
    10     3    34    1
    11     4    35    1
    12     4    36    1
    13     4    37    1
    14     5     6    1
    15     6     7    2
    16     6     8   am
    17     8    28    1
    18     8     9    1
    19     9    10    1
    20     9    38    1
    21     9    39    1
    22    10    11    1
    23    10    40    1
    24    10    41    1
    25    11    12    1
    26    11    42    1
    27    11    43    1
    28    12    26    1
    29    12    13    1
    30    12    27    1
    31    13    14    1
    32    13    44    1
    33    13    45    1
    34    14    15    1
    35    14    26    1
    36    15    16    1
    37    15    46    1
    38    15    47    1
    39    16    25   ar
    40    16    17   ar
    41    17    18   ar
    42    17    48    1
    43    18    19   ar
    44    19    24   ar
    45    19    20   ar
    46    20    21   ar
    47    20    49    1
    48    21    22   ar
    49    21    50    1
    50    22    23   ar
    51    22    51    1
    52    23    24   ar
    53    24    25   ar
    54    25    52    1
    55    26    53    1
    56    26    54    1
    57    27    28    1
    58    27    55    1
    59    27    56    1
    60    28    57    1
    61    28    58    1
@<TRIPOS>SUBSTRUCTURE
     1 ZINC001139743874        1 TEMP              0 ****  ****    0 ROOT


##########                                Name:    ZINC001272744746
##########                DOCK_Rotatable_Bonds:                   6
##########                         Heavy_Atoms:                  25
##########                    Molecular_Weight:             348.417
##########                DOCK_Rotatable_Bonds:                   6
##########                       Formal_Charge:           0.0299999
##########                     HBond_Acceptors:                   6
##########                        HBond_Donors:                   1
##########                         Heavy_Atoms:                  25
##########                          Grid_Score:          -30.305052
##########                     Grid_vdw_energy:          -30.057468
##########                      Grid_es_energy:           -0.247584
##########           Internal_energy_repulsive:           70.568451

@<TRIPOS>MOLECULE
ZINC001272744746
 50 52 1 0 0
SMALL
USER_CHARGES


@<TRIPOS>ATOM
      1 C1        -15.8761   -1.4396   57.9938 C.2     1  ZINC001272744746   -0.1700
      2 C2        -14.9654   -1.3301   58.9291 C.2     1  ZINC001272744746   -0.1700
      3 C3        -14.0616   -2.4950   59.2409 C.3     1  ZINC001272744746    0.1500
      4 N4        -12.8436   -2.3979   58.4326 N.am    1  ZINC001272744746   -0.6100
      5 C5        -11.7934   -1.3905   58.6336 C.3     1  ZINC001272744746    0.0700
      6 C6        -10.5678   -1.9223   57.8711 C.3     1  ZINC001272744746    0.1100
      7 C7        -11.2075   -2.8357   56.8096 C.3     1  ZINC001272744746   -0.1500
      8 C8        -12.5404   -3.2232   57.4148 C.2     1  ZINC001272744746    0.5200
      9 O9        -13.2369   -4.1395   57.0325 O.2     1  ZINC001272744746   -0.5200
     10 C10        -9.6688   -2.7286   58.7982 C.3     1  ZINC001272744746   -0.1000
     11 C11        -9.0641   -1.7981   59.8552 C.3     1  ZINC001272744746   -0.1200
     12 C12        -8.3170   -0.6613   59.1520 C.3     1  ZINC001272744746   -0.1200
     13 C13        -9.2847    0.0953   58.2396 C.3     1  ZINC001272744746    0.0500
     14 N14        -9.8375   -0.8281   57.2384 N.3     1  ZINC001272744746   -0.5100
     15 C15       -10.6881   -0.1142   56.2767 C.3     1  ZINC001272744746    0.0800
     16 C16       -10.1139   -0.2628   54.8913 C.ar    1  ZINC001272744746   -0.0200
     17 C17       -10.9285   -0.6550   53.8458 C.ar    1  ZINC001272744746   -0.1700
     18 C18       -10.4052   -0.7930   52.5714 C.ar    1  ZINC001272744746    0.1200
     19 F19       -11.2033   -1.1764   51.5509 F       1  ZINC001272744746   -0.1200
     20 C20        -9.0613   -0.5367   52.3428 C.ar    1  ZINC001272744746    0.0400
     21 O21        -8.5448   -0.6709   51.0913 O.3     1  ZINC001272744746   -0.4700
     22 C22        -8.2431   -0.1416   53.3960 C.ar    1  ZINC001272744746    0.1300
     23 O23        -6.9250    0.1112   53.1768 O.3     1  ZINC001272744746   -0.3000
     24 C24        -6.4509   -0.0329   51.8364 C.3     1  ZINC001272744746    0.0200
     25 C25        -8.7747   -0.0010   54.6680 C.ar    1  ZINC001272744746   -0.1800
     26 H26       -15.9791   -2.3647   57.4460 H       1  ZINC001272744746    0.1000
     27 H27       -16.5267   -0.6063   57.7733 H       1  ZINC001272744746    0.1000
     28 H28       -14.8625   -0.4050   59.4769 H       1  ZINC001272744746    0.1100
     29 H29       -13.7983   -2.4777   60.2984 H       1  ZINC001272744746    0.0900
     30 H30       -14.5775   -3.4271   59.0101 H       1  ZINC001272744746    0.0800
     31 H31       -12.1068   -0.4310   58.2224 H       1  ZINC001272744746    0.0700
     32 H32       -11.5639   -1.2906   59.6945 H       1  ZINC001272744746    0.0900
     33 H33       -11.3513   -2.2930   55.8753 H       1  ZINC001272744746    0.1100
     34 H34       -10.5931   -3.7213   56.6473 H       1  ZINC001272744746    0.1100
     35 H35       -10.2558   -3.5044   59.2898 H       1  ZINC001272744746    0.0700
     36 H36        -8.8688   -3.1894   58.2190 H       1  ZINC001272744746    0.0800
     37 H37        -9.8599   -1.3834   60.4740 H       1  ZINC001272744746    0.0600
     38 H38        -8.3694   -2.3591   60.4803 H       1  ZINC001272744746    0.0700
     39 H39        -7.9104    0.0223   59.8973 H       1  ZINC001272744746    0.0700
     40 H40        -7.5036   -1.0750   58.5559 H       1  ZINC001272744746    0.0700
     41 H41       -10.0960    0.5122   58.8364 H       1  ZINC001272744746    0.0400
     42 H42        -8.7531    0.9022   57.7352 H       1  ZINC001272744746    0.0900
     43 H43       -11.6939   -0.5337   56.3000 H       1  ZINC001272744746    0.1000
     44 H44       -10.7287    0.9423   56.5418 H       1  ZINC001272744746    0.0600
     45 H45       -11.9749   -0.8547   54.0234 H       1  ZINC001272744746    0.1400
     46 H46        -7.5985   -0.4808   51.0339 H       1  ZINC001272744746    0.3900
     47 H47        -6.9928    0.6516   51.1838 H       1  ZINC001272744746    0.0600
     48 H48        -5.3861    0.1976   51.8008 H       1  ZINC001272744746    0.1100
     49 H49        -6.6121   -1.0578   51.5022 H       1  ZINC001272744746    0.0600
     50 H50        -8.1410    0.3057   55.4870 H       1  ZINC001272744746    0.1400
@<TRIPOS>BOND
     1     1     2    2
     2     1    26    1
     3     1    27    1
     4     2     3    1
     5     2    28    1
     6     3     4    1
     7     3    29    1
     8     3    30    1
     9     4     8   am
    10     4     5    1
    11     5     6    1
    12     5    31    1
    13     5    32    1
    14     6    14    1
    15     6     7    1
    16     6    10    1
    17     7     8    1
    18     7    33    1
    19     7    34    1
    20     8     9    2
    21    10    11    1
    22    10    35    1
    23    10    36    1
    24    11    12    1
    25    11    37    1
    26    11    38    1
    27    12    13    1
    28    12    39    1
    29    12    40    1
    30    13    14    1
    31    13    41    1
    32    13    42    1
    33    14    15    1
    34    15    16    1
    35    15    43    1
    36    15    44    1
    37    16    25   ar
    38    16    17   ar
    39    17    18   ar
    40    17    45    1
    41    18    19    1
    42    18    20   ar
    43    20    21    1
    44    20    22   ar
    45    21    46    1
    46    22    23    1
    47    22    25   ar
    48    23    24    1
    49    24    47    1
    50    24    48    1
    51    24    49    1
    52    25    50    1
@<TRIPOS>SUBSTRUCTURE
     1 ZINC001272744746        1 TEMP              0 ****  ****    0 ROOT


##########                                Name:    ZINC000558213406
##########                DOCK_Rotatable_Bonds:                   8
##########                         Heavy_Atoms:                  30
##########                    Molecular_Weight:               408.5
##########                DOCK_Rotatable_Bonds:                   8
##########                       Formal_Charge:          -0.0299987
##########                     HBond_Acceptors:                   7
##########                        HBond_Donors:                   2
##########                         Heavy_Atoms:                  30
##########                          Grid_Score:          -30.304039
##########                     Grid_vdw_energy:          -31.103106
##########                      Grid_es_energy:            0.799067
##########           Internal_energy_repulsive:            9.727879

@<TRIPOS>MOLECULE
ZINC000558213406
 58 61 1 0 0
SMALL
USER_CHARGES


@<TRIPOS>ATOM
      1 O1         -7.7208    0.4458   54.2706 O.2     1  ZINC000558213406   -0.5700
      2 C2         -8.7444    0.1608   53.6794 C.2     1  ZINC000558213406    0.7100
      3 N3         -8.8105    0.3007   52.3405 N.am    1  ZINC000558213406   -0.6800
      4 C4         -7.7015    0.7801   51.6305 C.ar    1  ZINC000558213406    0.1700
      5 C5         -6.5779   -0.0206   51.4742 C.ar    1  ZINC000558213406   -0.1300
      6 C6         -5.4857    0.4520   50.7740 C.ar    1  ZINC000558213406   -0.1100
      7 C7         -5.5105    1.7269   50.2272 C.ar    1  ZINC000558213406    0.0600
      8 O8         -4.4346    2.1920   49.5383 O.3     1  ZINC000558213406   -0.2500
      9 C9         -3.3318    2.5533   50.2454 C.ar    1  ZINC000558213406    0.0700
     10 C10        -2.0659    2.1473   49.8349 C.ar    1  ZINC000558213406   -0.1500
     11 C11        -0.9717    2.5407   50.5885 C.ar    1  ZINC000558213406   -0.1300
     12 C12        -1.1716    3.3174   51.7142 C.ar    1  ZINC000558213406    0.0600
     13 N13        -2.3852    3.6851   52.0765 N.ar    1  ZINC000558213406   -0.4500
     14 C14        -3.4516    3.3374   51.3842 C.ar    1  ZINC000558213406    0.0800
     15 C15        -6.6331    2.5272   50.3827 C.ar    1  ZINC000558213406   -0.1000
     16 C16        -7.7280    2.0536   51.0782 C.ar    1  ZINC000558213406   -0.1100
     17 N17        -9.8110   -0.3002   54.3622 N.am    1  ZINC000558213406   -0.7300
     18 C18        -9.7391   -0.4523   55.8176 C.3     1  ZINC000558213406    0.1500
     19 H19        -8.8515   -1.0179   56.1014 H       1  ZINC000558213406    0.1100
     20 C20        -9.7537    0.9333   56.5156 C.3     1  ZINC000558213406   -0.1400
     21 C21       -10.3476    0.5772   57.9014 C.3     1  ZINC000558213406    0.1000
     22 N22       -11.3610   -0.4569   57.6231 N.am    1  ZINC000558213406   -0.6200
     23 C23       -12.4265   -0.7412   58.3979 C.2     1  ZINC000558213406    0.5400
     24 O24       -12.6129   -0.1214   59.4236 O.2     1  ZINC000558213406   -0.5300
     25 C25       -13.3861   -1.8292   57.9899 C.3     1  ZINC000558213406   -0.1000
     26 C26       -14.1267   -2.3455   59.2250 C.3     1  ZINC000558213406   -0.1100
     27 C27       -15.1010   -3.4501   58.8107 C.3     1  ZINC000558213406   -0.1200
     28 C28       -16.1111   -2.8894   57.8076 C.3     1  ZINC000558213406   -0.1200
     29 C29       -15.3704   -2.3729   56.5725 C.3     1  ZINC000558213406   -0.1200
     30 C30       -14.3961   -1.2684   56.9869 C.3     1  ZINC000558213406   -0.1100
     31 C31       -11.0151   -1.1304   56.3593 C.3     1  ZINC000558213406    0.1000
     32 H32        -9.6257    0.0696   51.8684 H       1  ZINC000558213406    0.4100
     33 H33        -6.5583   -1.0127   51.9004 H       1  ZINC000558213406    0.1300
     34 H34        -4.6117   -0.1708   50.6524 H       1  ZINC000558213406    0.1400
     35 H35        -1.9394    1.5401   48.9508 H       1  ZINC000558213406    0.1400
     36 H36         0.0257    2.2437   50.2998 H       1  ZINC000558213406    0.1400
     37 H37        -0.3225    3.6270   52.3055 H       1  ZINC000558213406    0.1600
     38 H38        -4.4295    3.6579   51.7119 H       1  ZINC000558213406    0.1700
     39 H39        -6.6519    3.5195   49.9568 H       1  ZINC000558213406    0.1400
     40 H40        -8.6019    2.6766   51.1989 H       1  ZINC000558213406    0.1500
     41 H41       -10.6261   -0.5314   53.8901 H       1  ZINC000558213406    0.4000
     42 H42        -8.7439    1.3318   56.6142 H       1  ZINC000558213406    0.0900
     43 H43       -10.3977    1.6326   55.9826 H       1  ZINC000558213406    0.0800
     44 H44        -9.5716    0.1812   58.5563 H       1  ZINC000558213406    0.0700
     45 H45       -10.8138    1.4538   58.3509 H       1  ZINC000558213406    0.0800
     46 H46       -12.8328   -2.6476   57.5293 H       1  ZINC000558213406    0.0900
     47 H47       -13.4071   -2.7451   59.9397 H       1  ZINC000558213406    0.0600
     48 H48       -14.6799   -1.5270   59.6855 H       1  ZINC000558213406    0.0700
     49 H49       -14.5477   -4.2686   58.3502 H       1  ZINC000558213406    0.0600
     50 H50       -15.6286   -3.8180   59.6906 H       1  ZINC000558213406    0.0700
     51 H51       -16.8051   -3.6763   57.5125 H       1  ZINC000558213406    0.0600
     52 H52       -16.6643   -2.0708   58.2682 H       1  ZINC000558213406    0.0600
     53 H53       -14.8172   -3.1914   56.1120 H       1  ZINC000558213406    0.0600
     54 H54       -16.0901   -1.9735   55.8579 H       1  ZINC000558213406    0.0700
     55 H55       -14.9494   -0.4498   57.4473 H       1  ZINC000558213406    0.0800
     56 H56       -13.8684   -0.9005   56.1069 H       1  ZINC000558213406    0.0600
     57 H57       -11.8275   -1.0130   55.6423 H       1  ZINC000558213406    0.0800
     58 H58       -10.8292   -2.1888   56.5421 H       1  ZINC000558213406    0.0800
@<TRIPOS>BOND
     1     1     2    2
     2     2     3   am
     3     2    17   am
     4     3     4    1
     5     3    32    1
     6     4    16   ar
     7     4     5   ar
     8     5     6   ar
     9     5    33    1
    10     6     7   ar
    11     6    34    1
    12     7     8    1
    13     7    15   ar
    14     8     9    1
    15     9    14   ar
    16     9    10   ar
    17    10    11   ar
    18    10    35    1
    19    11    12   ar
    20    11    36    1
    21    12    13   ar
    22    12    37    1
    23    13    14   ar
    24    14    38    1
    25    15    16   ar
    26    15    39    1
    27    16    40    1
    28    17    18    1
    29    17    41    1
    30    18    19    1
    31    18    31    1
    32    18    20    1
    33    20    21    1
    34    20    42    1
    35    20    43    1
    36    21    22    1
    37    21    44    1
    38    21    45    1
    39    22    23   am
    40    22    31    1
    41    23    24    2
    42    23    25    1
    43    25    30    1
    44    25    26    1
    45    25    46    1
    46    26    27    1
    47    26    47    1
    48    26    48    1
    49    27    28    1
    50    27    49    1
    51    27    50    1
    52    28    29    1
    53    28    51    1
    54    28    52    1
    55    29    30    1
    56    29    53    1
    57    29    54    1
    58    30    55    1
    59    30    56    1
    60    31    57    1
    61    31    58    1
@<TRIPOS>SUBSTRUCTURE
     1 ZINC000558213406        1 TEMP              0 ****  ****    0 ROOT


##########                                Name:    ZINC001070580102
##########                DOCK_Rotatable_Bonds:                   8
##########                         Heavy_Atoms:                  25
##########                    Molecular_Weight:              349.39
##########                DOCK_Rotatable_Bonds:                   8
##########                       Formal_Charge:          -0.0100003
##########                     HBond_Acceptors:                   9
##########                        HBond_Donors:                   3
##########                         Heavy_Atoms:                  25
##########                          Grid_Score:          -30.291214
##########                     Grid_vdw_energy:          -29.683870
##########                      Grid_es_energy:           -0.607343
##########           Internal_energy_repulsive:           17.732418

@<TRIPOS>MOLECULE
ZINC001070580102
 48 50 1 0 0
SMALL
USER_CHARGES


@<TRIPOS>ATOM
      1 C1          1.0935    5.1240   52.7547 C.3     1  ZINC001070580102   -0.0800
      2 C2         -0.2862    4.6395   52.3902 C.2     1  ZINC001070580102   -0.0100
      3 C3         -0.5639    3.6999   51.4735 C.2     1  ZINC001070580102   -0.1900
      4 C4         -2.0277    3.5631   51.4656 C.2     1  ZINC001070580102   -0.2500
      5 C5         -2.8332    2.6557   50.6290 C.2     1  ZINC001070580102    0.6000
      6 O6         -2.2859    1.9116   49.8381 O.2     1  ZINC001070580102   -0.5300
      7 N7         -4.1763    2.6505   50.7407 N.am    1  ZINC001070580102   -0.7200
      8 C8         -4.9771    1.7498   49.9078 C.3     1  ZINC001070580102    0.2000
      9 C9         -6.3225    1.5337   50.5514 C.2     1  ZINC001070580102    0.2600
     10 N10        -6.6245    0.5856   51.4009 N.2     1  ZINC001070580102   -0.5100
     11 C11        -7.9014    0.6950   51.7652 C.2     1  ZINC001070580102    0.2300
     12 C12        -8.6175   -0.2138   52.7307 C.3     1  ZINC001070580102    0.1400
     13 H13        -8.0245   -1.1141   52.8912 H       1  ZINC001070580102    0.0800
     14 C14        -9.9834   -0.5970   52.1550 C.3     1  ZINC001070580102    0.0800
     15 O15       -10.6888   -1.3976   53.1071 O.3     1  ZINC001070580102   -0.3800
     16 C16       -10.8937   -0.7494   54.3654 C.3     1  ZINC001070580102    0.0600
     17 C17        -9.5371   -0.3676   54.9635 C.3     1  ZINC001070580102    0.0200
     18 N18        -8.8083    0.4829   54.0112 N.3     1  ZINC001070580102   -0.5200
     19 C19        -7.5222    0.9184   54.5717 C.3     1  ZINC001070580102    0.0600
     20 C20        -7.4980    2.4453   54.6664 C.3     1  ZINC001070580102    0.0800
     21 O21        -8.5987    2.8907   55.4615 O.3     1  ZINC001070580102   -0.5700
     22 N22        -8.4321    1.7190   51.1500 N.2     1  ZINC001070580102   -0.2700
     23 N23        -7.4202    2.2851   50.3574 N.pl3   1  ZINC001070580102   -0.4700
     24 C24        -2.4845    4.4509   52.3952 C.2     1  ZINC001070580102    0.0900
     25 C25        -3.9289    4.6838   52.7566 C.3     1  ZINC001070580102   -0.0900
     26 O26        -1.4331    5.0751   52.9348 O.3     1  ZINC001070580102   -0.1700
     27 H27         1.0179    5.8854   53.5309 H       1  ZINC001070580102    0.0800
     28 H28         1.6868    4.2871   53.1232 H       1  ZINC001070580102    0.0900
     29 H29         1.5736    5.5497   51.8736 H       1  ZINC001070580102    0.0900
     30 H30         0.1434    3.1555   50.8654 H       1  ZINC001070580102    0.1500
     31 H31        -4.6128    3.2432   51.3724 H       1  ZINC001070580102    0.4000
     32 H32        -5.1132    2.1923   48.9210 H       1  ZINC001070580102    0.1000
     33 H33        -4.4636    0.7934   49.8094 H       1  ZINC001070580102    0.1100
     34 H34       -10.5557    0.3062   51.9438 H       1  ZINC001070580102    0.0700
     35 H35        -9.8442   -1.1641   51.2345 H       1  ZINC001070580102    0.1000
     36 H36       -11.4925    0.1495   54.2183 H       1  ZINC001070580102    0.0600
     37 H37       -11.4129   -1.4265   55.0435 H       1  ZINC001070580102    0.1000
     38 H38        -9.6904    0.1774   55.8949 H       1  ZINC001070580102    0.1200
     39 H39        -8.9591   -1.2706   55.1602 H       1  ZINC001070580102    0.0400
     40 H40        -7.3958    0.4907   55.5662 H       1  ZINC001070580102    0.0500
     41 H41        -6.7115    0.5816   53.9256 H       1  ZINC001070580102    0.0800
     42 H42        -6.5637    2.7660   55.1272 H       1  ZINC001070580102    0.0500
     43 H43        -7.5755    2.8726   53.6667 H       1  ZINC001070580102    0.0600
     44 H44        -8.6686    3.8525   55.5330 H       1  ZINC001070580102    0.3800
     45 H45        -7.4995    3.0604   49.7798 H       1  ZINC001070580102    0.4400
     46 H46        -4.2127    4.0143   53.5686 H       1  ZINC001070580102    0.0900
     47 H47        -4.0614    5.7178   53.0752 H       1  ZINC001070580102    0.0800
     48 H48        -4.5570    4.4880   51.8877 H       1  ZINC001070580102    0.1100
@<TRIPOS>BOND
     1     1     2    1
     2     1    27    1
     3     1    28    1
     4     1    29    1
     5     2    26    1
     6     2     3    2
     7     3     4    1
     8     3    30    1
     9     4     5    1
    10     4    24    2
    11     5     6    2
    12     5     7   am
    13     7     8    1
    14     7    31    1
    15     8     9    1
    16     8    32    1
    17     8    33    1
    18     9    23    1
    19     9    10    2
    20    10    11    1
    21    11    12    1
    22    11    22    2
    23    12    13    1
    24    12    18    1
    25    12    14    1
    26    14    15    1
    27    14    34    1
    28    14    35    1
    29    15    16    1
    30    16    17    1
    31    16    36    1
    32    16    37    1
    33    17    18    1
    34    17    38    1
    35    17    39    1
    36    18    19    1
    37    19    20    1
    38    19    40    1
    39    19    41    1
    40    20    21    1
    41    20    42    1
    42    20    43    1
    43    21    44    1
    44    22    23    1
    45    23    45    1
    46    24    25    1
    47    24    26    1
    48    25    46    1
    49    25    47    1
    50    25    48    1
@<TRIPOS>SUBSTRUCTURE
     1 ZINC001070580102        1 TEMP              0 ****  ****    0 ROOT


##########                                Name:    ZINC000190927708
##########                DOCK_Rotatable_Bonds:                  10
##########                         Heavy_Atoms:                  26
##########                    Molecular_Weight:             358.437
##########                DOCK_Rotatable_Bonds:                  10
##########                       Formal_Charge:           0.0499998
##########                     HBond_Acceptors:                   6
##########                        HBond_Donors:                   1
##########                         Heavy_Atoms:                  26
##########                          Grid_Score:          -30.254841
##########                     Grid_vdw_energy:          -29.578264
##########                      Grid_es_energy:           -0.676577
##########           Internal_energy_repulsive:           24.832073

@<TRIPOS>MOLECULE
ZINC000190927708
 52 53 1 0 0
SMALL
USER_CHARGES


@<TRIPOS>ATOM
      1 C1         -8.3240   -0.1633   62.1482 C.3     1  ZINC000190927708   -0.1500
      2 C2         -8.4767    0.0760   60.6448 C.3     1  ZINC000190927708   -0.1500
      3 C3         -8.7131   -1.2597   59.9371 C.3     1  ZINC000190927708    0.1000
      4 N4         -9.5445   -1.0432   58.7505 N.am    1  ZINC000190927708   -0.5900
      5 C5         -9.0496   -0.3664   57.6952 C.2     1  ZINC000190927708    0.5300
      6 O6         -7.9165    0.0646   57.7286 O.2     1  ZINC000190927708   -0.5300
      7 C7         -9.9042   -0.1453   56.4739 C.3     1  ZINC000190927708   -0.0800
      8 C8         -9.0879    0.5365   55.4063 C.2     1  ZINC000190927708   -0.1700
      9 C9         -8.5430   -0.1945   54.4026 C.2     1  ZINC000190927708    0.0000
     10 C10        -7.7558    0.4981   53.3808 C.ar    1  ZINC000190927708   -0.1300
     11 C11        -7.1701   -0.2017   52.3212 C.ar    1  ZINC000190927708   -0.0500
     12 C12        -6.4421    0.4745   51.3831 C.ar    1  ZINC000190927708   -0.1500
     13 C13        -6.2786    1.8498   51.4726 C.ar    1  ZINC000190927708   -0.0600
     14 C14        -6.8466    2.5599   52.5085 C.ar    1  ZINC000190927708   -0.1600
     15 C15        -7.5922    1.8933   53.4748 C.ar    1  ZINC000190927708    0.1900
     16 N16        -8.1719    2.5784   54.5214 N.am    1  ZINC000190927708   -0.6300
     17 C17        -8.8984    1.9344   55.4516 C.2     1  ZINC000190927708    0.5500
     18 O18        -9.3963    2.5722   56.3632 O.2     1  ZINC000190927708   -0.5300
     19 C19       -10.9139   -1.5623   58.7109 C.3     1  ZINC000190927708    0.1500
     20 H20       -11.4510   -1.1072   57.8786 H       1  ZINC000190927708    0.1400
     21 C21       -11.6254   -1.2247   60.0226 C.3     1  ZINC000190927708   -0.1300
     22 C22       -12.7153   -0.1839   59.7585 C.3     1  ZINC000190927708   -0.1500
     23 C23       -10.8792   -3.0578   58.5286 C.2     1  ZINC000190927708    0.4500
     24 O24       -10.0698   -3.7213   59.1324 O.2     1  ZINC000190927708   -0.5000
     25 O25       -11.7474   -3.6528   57.6957 O.3     1  ZINC000190927708   -0.3500
     26 C26       -13.1113   -3.1547   57.6992 C.3     1  ZINC000190927708    0.0600
     27 C27       -13.9930   -4.0761   56.8540 C.3     1  ZINC000190927708   -0.1500
     28 H28        -7.4757   -0.8241   62.3266 H       1  ZINC000190927708    0.0600
     29 H29        -8.1557    0.7883   62.6523 H       1  ZINC000190927708    0.0600
     30 H30        -9.2320   -0.6246   62.5368 H       1  ZINC000190927708    0.0600
     31 H31        -9.3251    0.7368   60.4664 H       1  ZINC000190927708    0.0800
     32 H32        -7.5688    0.5374   60.2562 H       1  ZINC000190927708    0.0700
     33 H33        -7.7560   -1.6864   59.6373 H       1  ZINC000190927708    0.0900
     34 H34        -9.2201   -1.9456   60.6157 H       1  ZINC000190927708    0.0900
     35 H35       -10.2606   -1.1056   56.1010 H       1  ZINC000190927708    0.1100
     36 H36       -10.7566    0.4817   56.7356 H       1  ZINC000190927708    0.1200
     37 H37        -8.6862   -1.2640   54.3582 H       1  ZINC000190927708    0.1400
     38 H38        -7.2924   -1.2720   52.2447 H       1  ZINC000190927708    0.1400
     39 H39        -5.9895   -0.0663   50.5650 H       1  ZINC000190927708    0.1300
     40 H40        -5.7001    2.3690   50.7228 H       1  ZINC000190927708    0.1300
     41 H41        -6.7135    3.6300   52.5692 H       1  ZINC000190927708    0.1300
     42 H42        -8.0574    3.5395   54.5853 H       1  ZINC000190927708    0.4200
     43 H43       -12.0771   -2.1275   60.4337 H       1  ZINC000190927708    0.0900
     44 H44       -10.9041   -0.8229   60.7342 H       1  ZINC000190927708    0.0800
     45 H45       -13.2221    0.0567   60.6930 H       1  ZINC000190927708    0.0600
     46 H46       -12.2636    0.7189   59.3473 H       1  ZINC000190927708    0.0600
     47 H47       -13.4366   -0.5857   59.0469 H       1  ZINC000190927708    0.0600
     48 H48       -13.4867   -3.1308   58.7224 H       1  ZINC000190927708    0.0700
     49 H49       -13.1316   -2.1482   57.2812 H       1  ZINC000190927708    0.0700
     50 H50       -13.6177   -4.0999   55.8309 H       1  ZINC000190927708    0.0700
     51 H51       -13.9726   -5.0825   57.2720 H       1  ZINC000190927708    0.0700
     52 H52       -15.0169   -3.7021   56.8567 H       1  ZINC000190927708    0.0800
@<TRIPOS>BOND
     1     1     2    1
     2     1    28    1
     3     1    29    1
     4     1    30    1
     5     2     3    1
     6     2    31    1
     7     2    32    1
     8     3     4    1
     9     3    33    1
    10     3    34    1
    11     4     5   am
    12     4    19    1
    13     5     6    2
    14     5     7    1
    15     7     8    1
    16     7    35    1
    17     7    36    1
    18     8    17    1
    19     8     9    2
    20     9    10    1
    21     9    37    1
    22    10    15   ar
    23    10    11   ar
    24    11    12   ar
    25    11    38    1
    26    12    13   ar
    27    12    39    1
    28    13    14   ar
    29    13    40    1
    30    14    15   ar
    31    14    41    1
    32    15    16    1
    33    16    17   am
    34    16    42    1
    35    17    18    2
    36    19    20    1
    37    19    21    1
    38    19    23    1
    39    21    22    1
    40    21    43    1
    41    21    44    1
    42    22    45    1
    43    22    46    1
    44    22    47    1
    45    23    24    2
    46    23    25    1
    47    25    26    1
    48    26    27    1
    49    26    48    1
    50    26    49    1
    51    27    50    1
    52    27    51    1
    53    27    52    1
@<TRIPOS>SUBSTRUCTURE
     1 ZINC000190927708        1 TEMP              0 ****  ****    0 ROOT


##########                                Name:    ZINC001082278299
##########                DOCK_Rotatable_Bonds:                   9
##########                         Heavy_Atoms:                  25
##########                    Molecular_Weight:              346.47
##########                DOCK_Rotatable_Bonds:                   9
##########                       Formal_Charge:           0.0200001
##########                     HBond_Acceptors:                   5
##########                        HBond_Donors:                   1
##########                         Heavy_Atoms:                  25
##########                          Grid_Score:          -30.241085
##########                     Grid_vdw_energy:          -29.815084
##########                      Grid_es_energy:           -0.426000
##########           Internal_energy_repulsive:           86.775124

@<TRIPOS>MOLECULE
ZINC001082278299
 55 57 1 0 0
SMALL
USER_CHARGES


@<TRIPOS>ATOM
      1 C1         -7.1254    0.0258   51.8507 C.3     1  ZINC001082278299   -0.1300
      2 C2         -7.9485    1.1244   51.2289 C.2     1  ZINC001082278299    0.0000
      3 C3         -9.1763    1.3703   51.6769 C.2     1  ZINC001082278299   -0.2300
      4 C4         -9.7311    0.5699   52.7793 C.2     1  ZINC001082278299    0.5400
      5 O5        -10.1195   -0.5637   52.5721 O.2     1  ZINC001082278299   -0.5300
      6 N6         -9.8091    1.0930   54.0190 N.am    1  ZINC001082278299   -0.7400
      7 C7        -10.3633    0.2964   55.1165 C.3     1  ZINC001082278299    0.1300
      8 C8         -9.7725    0.7762   56.4437 C.3     1  ZINC001082278299    0.1400
      9 H9        -10.0953    1.7988   56.6390 H       1  ZINC001082278299    0.0800
     10 C10        -8.2430    0.7251   56.3734 C.3     1  ZINC001082278299   -0.1300
     11 C11        -7.6613    1.0720   57.7458 C.3     1  ZINC001082278299   -0.1200
     12 C12        -8.1320    0.0430   58.7761 C.3     1  ZINC001082278299   -0.1400
     13 C13        -9.6602    0.0864   58.8738 C.3     1  ZINC001082278299    0.1100
     14 N14       -10.2282   -0.1004   57.5313 N.am    1  ZINC001082278299   -0.6100
     15 C15       -11.1456   -1.0606   57.3013 C.2     1  ZINC001082278299    0.5100
     16 O16       -11.6069   -1.2046   56.1890 O.2     1  ZINC001082278299   -0.5100
     17 C17       -11.5983   -1.9552   58.4263 C.3     1  ZINC001082278299   -0.1100
     18 C18       -12.8208   -2.7241   57.9959 C.2     1  ZINC001082278299   -0.0900
     19 C19       -12.6622   -3.8766   57.4160 C.2     1  ZINC001082278299   -0.1800
     20 C20       -13.8144   -4.7160   56.9419 C.3     1  ZINC001082278299    0.0900
     21 O21       -15.0327   -4.2568   57.5309 O.3     1  ZINC001082278299   -0.3800
     22 C22       -15.2237   -2.8432   57.3935 C.3     1  ZINC001082278299    0.0600
     23 C23       -14.1776   -2.1316   58.2591 C.3     1  ZINC001082278299   -0.1100
     24 C24        -7.3802    1.9445   50.0994 C.3     1  ZINC001082278299   -0.1200
     25 C25        -6.7878    3.3115   50.4474 C.3     1  ZINC001082278299   -0.1900
     26 C26        -5.8646    2.1514   50.0696 C.3     1  ZINC001082278299   -0.1500
     27 H27        -7.3089   -0.9094   51.3217 H       1  ZINC001082278299    0.0800
     28 H28        -6.0679    0.2807   51.7818 H       1  ZINC001082278299    0.0800
     29 H29        -7.4042   -0.0885   52.8982 H       1  ZINC001082278299    0.0700
     30 H30        -9.7661    2.1577   51.2312 H       1  ZINC001082278299    0.1300
     31 H31        -9.4983    1.9968   54.1845 H       1  ZINC001082278299    0.3900
     32 H32       -11.4469    0.4121   55.1383 H       1  ZINC001082278299    0.0900
     33 H33       -10.1130   -0.7537   54.9658 H       1  ZINC001082278299    0.0800
     34 H34        -7.9253   -0.2773   56.0864 H       1  ZINC001082278299    0.0700
     35 H35        -7.8885    1.4448   55.6355 H       1  ZINC001082278299    0.0800
     36 H36        -6.5727    1.0604   57.6922 H       1  ZINC001082278299    0.0700
     37 H37        -7.9995    2.0646   58.0432 H       1  ZINC001082278299    0.0700
     38 H38        -7.8153   -0.9530   58.4666 H       1  ZINC001082278299    0.0700
     39 H39        -7.6985    0.2772   59.7484 H       1  ZINC001082278299    0.0800
     40 H40       -10.0071   -0.7105   59.5316 H       1  ZINC001082278299    0.0900
     41 H41        -9.9738    1.0523   59.2698 H       1  ZINC001082278299    0.0700
     42 H42       -10.8002   -2.6533   58.6789 H       1  ZINC001082278299    0.1000
     43 H43       -11.8394   -1.3480   59.2988 H       1  ZINC001082278299    0.1000
     44 H44       -11.6585   -4.2467   57.2683 H       1  ZINC001082278299    0.1100
     45 H45       -13.8892   -4.6470   55.8566 H       1  ZINC001082278299    0.0600
     46 H46       -13.6453   -5.7549   57.2250 H       1  ZINC001082278299    0.1000
     47 H47       -15.0991   -2.5557   56.3495 H       1  ZINC001082278299    0.0600
     48 H48       -16.2239   -2.5733   57.7322 H       1  ZINC001082278299    0.1000
     49 H49       -14.4350   -2.2515   59.3115 H       1  ZINC001082278299    0.0800
     50 H50       -14.1601   -1.0708   58.0086 H       1  ZINC001082278299    0.0800
     51 H51        -7.8938    1.8469   49.1429 H       1  ZINC001082278299    0.1300
     52 H52        -6.9116    4.1137   49.7200 H       1  ZINC001082278299    0.1000
     53 H53        -6.8091    3.6177   51.4934 H       1  ZINC001082278299    0.1000
     54 H54        -5.2785    1.6944   50.8670 H       1  ZINC001082278299    0.0900
     55 H55        -5.3810    2.1904   49.0936 H       1  ZINC001082278299    0.1000
@<TRIPOS>BOND
     1     1     2    1
     2     1    27    1
     3     1    28    1
     4     1    29    1
     5     2     3    2
     6     2    24    1
     7     3     4    1
     8     3    30    1
     9     4     5    2
    10     4     6   am
    11     6     7    1
    12     6    31    1
    13     7     8    1
    14     7    32    1
    15     7    33    1
    16     8     9    1
    17     8    14    1
    18     8    10    1
    19    10    11    1
    20    10    34    1
    21    10    35    1
    22    11    12    1
    23    11    36    1
    24    11    37    1
    25    12    13    1
    26    12    38    1
    27    12    39    1
    28    13    14    1
    29    13    40    1
    30    13    41    1
    31    14    15   am
    32    15    16    2
    33    15    17    1
    34    17    18    1
    35    17    42    1
    36    17    43    1
    37    18    23    1
    38    18    19    2
    39    19    20    1
    40    19    44    1
    41    20    21    1
    42    20    45    1
    43    20    46    1
    44    21    22    1
    45    22    23    1
    46    22    47    1
    47    22    48    1
    48    23    49    1
    49    23    50    1
    50    24    26    1
    51    24    25    1
    52    24    51    1
    53    25    26    1
    54    25    52    1
    55    25    53    1
    56    26    54    1
    57    26    55    1
@<TRIPOS>SUBSTRUCTURE
     1 ZINC001082278299        1 TEMP              0 ****  ****    0 ROOT


##########                                Name:    ZINC000458730620
##########                DOCK_Rotatable_Bonds:                   9
##########                         Heavy_Atoms:                  25
##########                    Molecular_Weight:              375.44
##########                DOCK_Rotatable_Bonds:                   9
##########                       Formal_Charge:        -1.86265e-07
##########                     HBond_Acceptors:                   9
##########                        HBond_Donors:                   3
##########                         Heavy_Atoms:                  25
##########                          Grid_Score:          -30.175907
##########                     Grid_vdw_energy:          -29.891232
##########                      Grid_es_energy:           -0.284676
##########           Internal_energy_repulsive:           47.666996

@<TRIPOS>MOLECULE
ZINC000458730620
 48 49 1 0 0
SMALL
USER_CHARGES


@<TRIPOS>ATOM
      1 C1        -11.5931    0.7459   57.0574 C.3     1  ZINC000458730620   -0.1600
      2 C2        -10.9949   -0.2283   56.0404 C.3     1  ZINC000458730620    0.2000
      3 C3        -12.1167   -0.8375   55.1970 C.3     1  ZINC000458730620   -0.1600
      4 N4        -10.0620    0.4888   55.1676 N.am    1  ZINC000458730620   -0.7400
      5 C5         -9.3780   -0.1800   54.2181 C.2     1  ZINC000458730620    0.7100
      6 O6         -9.5341   -1.3787   54.0870 O.2     1  ZINC000458730620   -0.5800
      7 N7         -8.5210    0.4799   53.4142 N.am    1  ZINC000458730620   -0.7500
      8 C8         -7.7789   -0.2467   52.3810 C.3     1  ZINC000458730620    0.1300
      9 C9         -6.5742    0.5859   51.9375 C.3     1  ZINC000458730620    0.1000
     10 N10        -6.9830    1.9819   51.7635 N.am    1  ZINC000458730620   -1.1100
     11 S11        -6.3796    2.8703   50.5029 S.o2    1  ZINC000458730620    2.7000
     12 O12        -6.6399    2.1214   49.3236 O.2     1  ZINC000458730620   -0.9400
     13 O13        -6.8376    4.2017   50.6949 O.2     1  ZINC000458730620   -0.9400
     14 C14        -4.6280    2.9150   50.6875 C.ar    1  ZINC000458730620   -0.7300
     15 C15        -3.8207    2.2543   49.7811 C.ar    1  ZINC000458730620    0.0400
     16 C16        -2.4464    2.2890   49.9245 C.ar    1  ZINC000458730620   -0.1800
     17 C17        -1.8769    2.9859   50.9766 C.ar    1  ZINC000458730620    0.1900
     18 F18        -0.5335    3.0199   51.1162 F       1  ZINC000458730620   -0.1200
     19 C19        -2.6846    3.6482   51.8852 C.ar    1  ZINC000458730620   -0.2100
     20 C20        -4.0603    3.6172   51.7377 C.ar    1  ZINC000458730620    0.2200
     21 F21        -4.8496    4.2630   52.6237 F       1  ZINC000458730620   -0.1100
     22 C22       -10.2493   -1.3420   56.7785 C.3     1  ZINC000458730620   -0.1100
     23 C23       -10.9325   -1.7799   58.0847 C.3     1  ZINC000458730620   -0.1400
     24 C24       -10.5621   -3.2227   57.7026 C.3     1  ZINC000458730620   -0.1400
     25 C25       -10.5541   -2.7496   56.2394 C.3     1  ZINC000458730620   -0.1400
     26 H26       -12.3327    0.2263   57.6666 H       1  ZINC000458730620    0.0600
     27 H27       -10.8013    1.1330   57.6988 H       1  ZINC000458730620    0.0500
     28 H28       -12.0712    1.5721   56.5314 H       1  ZINC000458730620    0.0800
     29 H29       -12.6478   -0.0441   54.6713 H       1  ZINC000458730620    0.0800
     30 H30       -11.6906   -1.5315   54.4725 H       1  ZINC000458730620    0.0500
     31 H31       -12.8108   -1.3710   55.8464 H       1  ZINC000458730620    0.0600
     32 H32        -9.9366    1.4448   55.2730 H       1  ZINC000458730620    0.3900
     33 H33        -8.3956    1.4360   53.5196 H       1  ZINC000458730620    0.4000
     34 H34        -7.4339   -1.1991   52.7834 H       1  ZINC000458730620    0.0800
     35 H35        -8.4298   -0.4280   51.5256 H       1  ZINC000458730620    0.0800
     36 H36        -5.7934    0.5277   52.6959 H       1  ZINC000458730620    0.0900
     37 H37        -6.1928    0.1985   50.9929 H       1  ZINC000458730620    0.0700
     38 H38        -7.6070    2.3858   52.3866 H       1  ZINC000458730620    0.4300
     39 H39        -4.2641    1.7101   48.9604 H       1  ZINC000458730620    0.1700
     40 H40        -1.8166    1.7719   49.2158 H       1  ZINC000458730620    0.1600
     41 H41        -2.2412    4.1920   52.7063 H       1  ZINC000458730620    0.1600
     42 H42        -9.1844   -1.1376   56.8884 H       1  ZINC000458730620    0.1100
     43 H43       -10.4279   -1.4228   58.9824 H       1  ZINC000458730620    0.0700
     44 H44       -12.0065   -1.5941   58.0993 H       1  ZINC000458730620    0.0800
     45 H45        -9.5826   -3.5331   58.0665 H       1  ZINC000458730620    0.0800
     46 H46       -11.3458   -3.9476   57.9227 H       1  ZINC000458730620    0.0700
     47 H47       -11.5246   -2.8288   55.7495 H       1  ZINC000458730620    0.0800
     48 H48        -9.7440   -3.1752   55.6473 H       1  ZINC000458730620    0.0700
@<TRIPOS>BOND
     1     1     2    1
     2     1    26    1
     3     1    27    1
     4     1    28    1
     5     2     3    1
     6     2     4    1
     7     2    22    1
     8     3    29    1
     9     3    30    1
    10     3    31    1
    11     4     5   am
    12     4    32    1
    13     5     6    2
    14     5     7   am
    15     7     8    1
    16     7    33    1
    17     8     9    1
    18     8    34    1
    19     8    35    1
    20     9    10    1
    21     9    36    1
    22     9    37    1
    23    10    11   am
    24    10    38    1
    25    11    12    2
    26    11    13    2
    27    11    14    1
    28    14    20   ar
    29    14    15   ar
    30    15    16   ar
    31    15    39    1
    32    16    17   ar
    33    16    40    1
    34    17    18    1
    35    17    19   ar
    36    19    20   ar
    37    19    41    1
    38    20    21    1
    39    22    25    1
    40    22    23    1
    41    22    42    1
    42    23    24    1
    43    23    43    1
    44    23    44    1
    45    24    25    1
    46    24    45    1
    47    24    46    1
    48    25    47    1
    49    25    48    1
@<TRIPOS>SUBSTRUCTURE
     1 ZINC000458730620        1 TEMP              0 ****  ****    0 ROOT


##########                                Name:    ZINC000425987417
##########                DOCK_Rotatable_Bonds:                   9
##########                         Heavy_Atoms:                  25
##########                    Molecular_Weight:             357.419
##########                DOCK_Rotatable_Bonds:                   9
##########                       Formal_Charge:         -0.00999992
##########                     HBond_Acceptors:                   7
##########                        HBond_Donors:                   1
##########                         Heavy_Atoms:                  25
##########                          Grid_Score:          -30.152349
##########                     Grid_vdw_energy:          -29.406013
##########                      Grid_es_energy:           -0.746337
##########           Internal_energy_repulsive:           17.001673

@<TRIPOS>MOLECULE
ZINC000425987417
 51 52 1 0 0
SMALL
USER_CHARGES


@<TRIPOS>ATOM
      1 C1         -4.8768    1.8753   49.6093 C.3     1  ZINC000425987417   -0.1500
      2 C2         -6.3760    2.0603   49.8528 C.3     1  ZINC000425987417    0.0400
      3 N3         -6.6359    2.1012   51.2980 N.3     1  ZINC000425987417   -0.5300
      4 C4         -6.4813    0.7695   51.8986 C.3     1  ZINC000425987417    0.0400
      5 C5         -7.8620    0.1749   52.1831 C.3     1  ZINC000425987417    0.1400
      6 N6         -8.2705    0.5197   53.5471 N.am    1  ZINC000425987417   -0.7500
      7 C7         -8.9726   -0.3639   54.2840 C.2     1  ZINC000425987417    0.7200
      8 O8         -9.2667   -1.4471   53.8167 O.2     1  ZINC000425987417   -0.5800
      9 N9         -9.3484   -0.0467   55.5388 N.am    1  ZINC000425987417   -0.6200
     10 C10        -9.0079    1.2563   56.1336 C.3     1  ZINC000425987417    0.1300
     11 C11        -8.0775    1.0029   57.3188 C.3     1  ZINC000425987417   -0.1000
     12 C12        -8.6169   -0.0937   58.1988 C.ar    1  ZINC000425987417   -0.0600
     13 C13        -8.1485   -0.1606   59.5051 C.ar    1  ZINC000425987417   -0.1200
     14 C14        -8.5944   -1.1464   60.3610 C.ar    1  ZINC000425987417   -0.1100
     15 C15        -9.5142   -2.0779   59.9171 C.ar    1  ZINC000425987417   -0.1200
     16 C16        -9.9837   -2.0117   58.6211 C.ar    1  ZINC000425987417   -0.1100
     17 C17        -9.5401   -1.0170   57.7609 C.ar    1  ZINC000425987417   -0.0900
     18 C18       -10.1182   -0.9835   56.3643 C.3     1  ZINC000425987417    0.1800
     19 H19       -10.0662   -1.9802   55.9262 H       1  ZINC000425987417    0.0900
     20 C20       -11.5784   -0.5310   56.4285 C.3     1  ZINC000425987417   -0.1600
     21 C21        -5.7670    3.0822   51.9617 C.3     1  ZINC000425987417    0.0500
     22 C22        -6.4105    3.5262   53.2768 C.3     1  ZINC000425987417   -0.1600
     23 C23        -5.5221    4.5734   53.9513 C.3     1  ZINC000425987417    0.4500
     24 F24        -6.1112    4.9803   55.1533 F       1  ZINC000425987417   -0.1800
     25 F25        -4.2643    4.0197   54.2125 F       1  ZINC000425987417   -0.1800
     26 F26        -5.3787    5.6782   53.1050 F       1  ZINC000425987417   -0.1900
     27 H27        -4.5565    0.9198   50.0246 H       1  ZINC000425987417    0.0500
     28 H28        -4.6782    1.8907   48.5376 H       1  ZINC000425987417    0.0600
     29 H29        -4.3278    2.6837   50.0921 H       1  ZINC000425987417    0.0700
     30 H30        -6.7054    2.9943   49.3978 H       1  ZINC000425987417    0.0800
     31 H31        -6.9216    1.2275   49.4089 H       1  ZINC000425987417    0.0400
     32 H32        -5.9412    0.1206   51.2091 H       1  ZINC000425987417    0.0500
     33 H33        -5.9228    0.8540   52.8308 H       1  ZINC000425987417    0.0800
     34 H34        -8.5846    0.5789   51.4742 H       1  ZINC000425987417    0.0800
     35 H35        -7.8189   -0.9094   52.0799 H       1  ZINC000425987417    0.0700
     36 H36        -8.0358    1.3839   53.9198 H       1  ZINC000425987417    0.3900
     37 H37        -8.5027    1.8783   55.3946 H       1  ZINC000425987417    0.1000
     38 H38        -9.9152    1.7534   56.4768 H       1  ZINC000425987417    0.0700
     39 H39        -7.0944    0.7136   56.9474 H       1  ZINC000425987417    0.0800
     40 H40        -7.9839    1.9182   57.9032 H       1  ZINC000425987417    0.0900
     41 H41        -7.4286    0.5651   59.8534 H       1  ZINC000425987417    0.1200
     42 H42        -8.2256   -1.1904   61.3751 H       1  ZINC000425987417    0.1200
     43 H43        -9.8636   -2.8542   60.5815 H       1  ZINC000425987417    0.1200
     44 H44       -10.7018   -2.7397   58.2736 H       1  ZINC000425987417    0.1200
     45 H45       -11.6312    0.4650   56.8679 H       1  ZINC000425987417    0.0700
     46 H46       -11.9958   -0.5067   55.4218 H       1  ZINC000425987417    0.0600
     47 H47       -12.1485   -1.2292   57.0414 H       1  ZINC000425987417    0.0700
     48 H48        -4.7972    2.6286   52.1667 H       1  ZINC000425987417    0.0500
     49 H49        -5.6334    3.9473   51.3123 H       1  ZINC000425987417    0.0900
     50 H50        -7.3908    3.9575   53.0742 H       1  ZINC000425987417    0.1200
     51 H51        -6.5215    2.6652   53.9358 H       1  ZINC000425987417    0.1100
@<TRIPOS>BOND
     1     1     2    1
     2     1    27    1
     3     1    28    1
     4     1    29    1
     5     2     3    1
     6     2    30    1
     7     2    31    1
     8     3     4    1
     9     3    21    1
    10     4     5    1
    11     4    32    1
    12     4    33    1
    13     5     6    1
    14     5    34    1
    15     5    35    1
    16     6     7   am
    17     6    36    1
    18     7     8    2
    19     7     9   am
    20     9    18    1
    21     9    10    1
    22    10    11    1
    23    10    37    1
    24    10    38    1
    25    11    12    1
    26    11    39    1
    27    11    40    1
    28    12    17   ar
    29    12    13   ar
    30    13    14   ar
    31    13    41    1
    32    14    15   ar
    33    14    42    1
    34    15    16   ar
    35    15    43    1
    36    16    17   ar
    37    16    44    1
    38    17    18    1
    39    18    19    1
    40    18    20    1
    41    20    45    1
    42    20    46    1
    43    20    47    1
    44    21    22    1
    45    21    48    1
    46    21    49    1
    47    22    23    1
    48    22    50    1
    49    22    51    1
    50    23    24    1
    51    23    25    1
    52    23    26    1
@<TRIPOS>SUBSTRUCTURE
     1 ZINC000425987417        1 TEMP              0 ****  ****    0 ROOT


##########                                Name:    ZINC000542980334
##########                DOCK_Rotatable_Bonds:                   6
##########                         Heavy_Atoms:                  27
##########                    Molecular_Weight:             404.795
##########                DOCK_Rotatable_Bonds:                   6
##########                       Formal_Charge:           0.0300001
##########                     HBond_Acceptors:                  10
##########                        HBond_Donors:                   1
##########                         Heavy_Atoms:                  27
##########                          Grid_Score:          -30.144884
##########                     Grid_vdw_energy:          -29.048702
##########                      Grid_es_energy:           -1.096182
##########           Internal_energy_repulsive:           13.544975

@<TRIPOS>MOLECULE
ZINC000542980334
 44 46 1 0 0
SMALL
USER_CHARGES


@<TRIPOS>ATOM
      1 O1         -7.0967    1.4666   50.3347 O.2     1  ZINC000542980334   -0.5800
      2 C2         -6.8692    1.6063   51.5209 C.2     1  ZINC000542980334    0.7100
      3 N3         -6.0913    2.6228   51.9427 N.am    1  ZINC000542980334   -0.7400
      4 C4         -5.5150    3.5560   50.9715 C.3     1  ZINC000542980334    0.1800
      5 C5         -4.0229    3.3545   50.9053 C.ar    1  ZINC000542980334   -0.1400
      6 C6         -3.4863    2.4422   50.0134 C.ar    1  ZINC000542980334    0.1300
      7 F7         -4.2997    1.7318   49.2017 F       1  ZINC000542980334   -0.1200
      8 C8         -2.1150    2.2584   49.9533 C.ar    1  ZINC000542980334   -0.1500
      9 C9         -1.2833    2.9855   50.7834 C.ar    1  ZINC000542980334   -0.0700
     10 C10        -1.8193    3.8967   51.6742 C.ar    1  ZINC000542980334   -0.1200
     11 C11        -3.1886    4.0854   51.7320 C.ar    1  ZINC000542980334    0.0100
     12 Cl12       -3.8606    5.2303   52.8505 Cl      1  ZINC000542980334   -0.0400
     13 N13        -7.3994    0.7478   52.4144 N.am    1  ZINC000542980334   -0.6300
     14 C14        -8.2493   -0.3651   51.9699 C.3     1  ZINC000542980334    0.1100
     15 C15        -9.5758   -0.3082   52.7340 C.3     1  ZINC000542980334   -0.1300
     16 C16        -9.2933   -0.2949   54.2380 C.3     1  ZINC000542980334   -0.1300
     17 C17        -8.4768    0.9495   54.5944 C.3     1  ZINC000542980334    0.1400
     18 H18        -9.0278    1.8428   54.3003 H       1  ZINC000542980334    0.1100
     19 N19        -8.2345    0.9780   56.0390 N.pl3   1  ZINC000542980334   -0.3400
     20 C20        -7.1950    1.5760   56.6579 C.2     1  ZINC000542980334    0.0600
     21 C21        -7.3359    1.3744   57.9886 C.2     1  ZINC000542980334   -0.2300
     22 C22        -8.5014    0.6277   58.1897 C.2     1  ZINC000542980334   -0.0200
     23 C23        -9.0423    0.1756   59.5216 C.3     1  ZINC000542980334    0.5600
     24 F24        -8.6418    1.0737   60.5167 F       1  ZINC000542980334   -0.1700
     25 F25       -10.4397    0.1326   59.4672 F       1  ZINC000542980334   -0.1700
     26 F26        -8.5477   -1.0992   59.8175 F       1  ZINC000542980334   -0.1600
     27 N27        -9.0440    0.3947   57.0222 N.2     1  ZINC000542980334   -0.2300
     28 C28        -7.1333    0.9034   53.8509 C.3     1  ZINC000542980334    0.1300
     29 H29        -5.9129    2.7366   52.8894 H       1  ZINC000542980334    0.4000
     30 H30        -5.9502    3.3728   49.9891 H       1  ZINC000542980334    0.0900
     31 H31        -5.7301    4.5794   51.2790 H       1  ZINC000542980334    0.0900
     32 H32        -1.6956    1.5465   49.2578 H       1  ZINC000542980334    0.1500
     33 H33        -0.2140    2.8416   50.7363 H       1  ZINC000542980334    0.1500
     34 H34        -1.1685    4.4642   52.3228 H       1  ZINC000542980334    0.1500
     35 H35        -8.4394   -0.2751   50.9003 H       1  ZINC000542980334    0.0800
     36 H36        -7.7494   -1.3116   52.1757 H       1  ZINC000542980334    0.0800
     37 H37       -10.1165    0.5970   52.4573 H       1  ZINC000542980334    0.0800
     38 H38       -10.1772   -1.1823   52.4844 H       1  ZINC000542980334    0.0900
     39 H39       -10.2364   -0.2792   54.7845 H       1  ZINC000542980334    0.0800
     40 H40        -8.7312   -1.1883   54.5098 H       1  ZINC000542980334    0.0800
     41 H41        -6.3940    2.1180   56.1774 H       1  ZINC000542980334    0.1900
     42 H42        -6.6665    1.7272   58.7591 H       1  ZINC000542980334    0.1600
     43 H43        -6.5443    0.0604   54.2124 H       1  ZINC000542980334    0.0800
     44 H44        -6.5889    1.8322   54.0220 H       1  ZINC000542980334    0.1100
@<TRIPOS>BOND
     1     1     2    2
     2     2     3   am
     3     2    13   am
     4     3     4    1
     5     3    29    1
     6     4     5    1
     7     4    30    1
     8     4    31    1
     9     5    11   ar
    10     5     6   ar
    11     6     7    1
    12     6     8   ar
    13     8     9   ar
    14     8    32    1
    15     9    10   ar
    16     9    33    1
    17    10    11   ar
    18    10    34    1
    19    11    12    1
    20    13    28    1
    21    13    14    1
    22    14    15    1
    23    14    35    1
    24    14    36    1
    25    15    16    1
    26    15    37    1
    27    15    38    1
    28    16    17    1
    29    16    39    1
    30    16    40    1
    31    17    18    1
    32    17    19    1
    33    17    28    1
    34    19    27    1
    35    19    20    1
    36    20    21    2
    37    20    41    1
    38    21    22    1
    39    21    42    1
    40    22    23    1
    41    22    27    2
    42    23    24    1
    43    23    25    1
    44    23    26    1
    45    28    43    1
    46    28    44    1
@<TRIPOS>SUBSTRUCTURE
     1 ZINC000542980334        1 TEMP              0 ****  ****    0 ROOT


##########                                Name:    ZINC001015666108
##########                DOCK_Rotatable_Bonds:                   7
##########                         Heavy_Atoms:                  25
##########                    Molecular_Weight:             346.429
##########                DOCK_Rotatable_Bonds:                   7
##########                       Formal_Charge:          -0.0199997
##########                     HBond_Acceptors:                   7
##########                        HBond_Donors:                   1
##########                         Heavy_Atoms:                  25
##########                          Grid_Score:          -30.130871
##########                     Grid_vdw_energy:          -30.177280
##########                      Grid_es_energy:            0.046409
##########           Internal_energy_repulsive:           16.175274

@<TRIPOS>MOLECULE
ZINC001015666108
 51 53 1 0 0
SMALL
USER_CHARGES


@<TRIPOS>ATOM
      1 C1         -3.8709    4.1984   55.0113 C.3     1  ZINC001015666108   -0.1400
      2 C2         -4.4733    3.7072   53.6933 C.3     1  ZINC001015666108   -0.0700
      3 C3         -3.4143    3.7206   52.6212 C.2     1  ZINC001015666108   -0.0700
      4 C4         -3.5088    3.1696   51.3755 C.2     1  ZINC001015666108   -0.0900
      5 C5         -4.6685    2.4519   50.8363 C.2     1  ZINC001015666108    0.6100
      6 O6         -4.6575    2.0552   49.6858 O.2     1  ZINC001015666108   -0.5100
      7 N7         -5.7463    2.2315   51.6148 N.am    1  ZINC001015666108   -0.7200
      8 C8         -6.9041    1.5130   51.0768 C.3     1  ZINC001015666108    0.1400
      9 H9         -7.0056    1.7061   50.0088 H       1  ZINC001015666108    0.1100
     10 C10        -6.7620   -0.0043   51.3365 C.3     1  ZINC001015666108   -0.1300
     11 C11        -7.5984   -0.2154   52.6234 C.3     1  ZINC001015666108    0.0300
     12 N12        -8.7466    0.7083   52.4378 N.3     1  ZINC001015666108   -0.5100
     13 C13        -9.3893    1.0141   53.7229 C.3     1  ZINC001015666108    0.1700
     14 H14        -8.6560    1.4500   54.4012 H       1  ZINC001015666108    0.0900
     15 C15       -10.5306    2.0081   53.4986 C.3     1  ZINC001015666108   -0.1500
     16 C16        -9.9385   -0.2539   54.3243 C.2     1  ZINC001015666108    0.1900
     17 N17       -10.1098   -0.5027   55.6003 N.2     1  ZINC001015666108   -0.4800
     18 C18       -10.6192   -1.7460   55.6616 C.2     1  ZINC001015666108    0.1800
     19 C19       -10.9936   -2.4956   56.9140 C.3     1  ZINC001015666108    0.0000
     20 C20       -10.6839   -1.6312   58.1378 C.3     1  ZINC001015666108   -0.1500
     21 C21       -12.4879   -2.8225   56.8853 C.3     1  ZINC001015666108   -0.1500
     22 N22       -10.7296   -2.1817   54.4424 N.2     1  ZINC001015666108   -0.3800
     23 O23       -10.3492   -1.3375   53.6587 O.3     1  ZINC001015666108    0.1000
     24 C24        -8.1860    1.9322   51.8200 C.3     1  ZINC001015666108    0.0300
     25 O25        -2.3483    3.4011   50.7275 O.3     1  ZINC001015666108   -0.1700
     26 C26        -1.5204    4.0840   51.5286 C.2     1  ZINC001015666108    0.0000
     27 C27        -2.1420    4.3070   52.7076 C.2     1  ZINC001015666108   -0.2200
     28 H28        -4.6369    4.1888   55.7867 H       1  ZINC001015666108    0.0600
     29 H29        -3.0506    3.5424   55.3025 H       1  ZINC001015666108    0.0600
     30 H30        -3.4962    5.2139   54.8833 H       1  ZINC001015666108    0.0500
     31 H31        -4.8481    2.6917   53.8213 H       1  ZINC001015666108    0.0900
     32 H32        -5.2936    4.3633   53.4020 H       1  ZINC001015666108    0.0700
     33 H33        -5.7555    2.5488   52.5315 H       1  ZINC001015666108    0.4000
     34 H34        -7.1776   -0.5780   50.5079 H       1  ZINC001015666108    0.0900
     35 H35        -5.7188   -0.2706   51.5064 H       1  ZINC001015666108    0.0800
     36 H36        -7.9423   -1.2473   52.6938 H       1  ZINC001015666108    0.0800
     37 H37        -7.0218    0.0601   53.5064 H       1  ZINC001015666108    0.0500
     38 H38       -11.2640    1.5722   52.8202 H       1  ZINC001015666108    0.0800
     39 H39       -11.0075    2.2350   54.4521 H       1  ZINC001015666108    0.0700
     40 H40       -10.1335    2.9253   53.0636 H       1  ZINC001015666108    0.0800
     41 H41       -10.4202   -3.4211   56.9686 H       1  ZINC001015666108    0.1000
     42 H42       -11.2571   -0.7057   58.0832 H       1  ZINC001015666108    0.0600
     43 H43       -10.9547   -2.1734   59.0437 H       1  ZINC001015666108    0.0700
     44 H44        -9.6193   -1.3983   58.1582 H       1  ZINC001015666108    0.0600
     45 H45       -13.0613   -1.8970   56.8308 H       1  ZINC001015666108    0.0600
     46 H46       -12.7085   -3.4384   56.0136 H       1  ZINC001015666108    0.0600
     47 H47       -12.7588   -3.3647   57.7913 H       1  ZINC001015666108    0.0700
     48 H48        -7.9450    2.6616   52.5933 H       1  ZINC001015666108    0.0600
     49 H49        -8.9037    2.3556   51.1172 H       1  ZINC001015666108    0.1000
     50 H50        -0.5220    4.4069   51.2731 H       1  ZINC001015666108    0.2100
     51 H51        -1.7341    4.8321   53.5587 H       1  ZINC001015666108    0.1600
@<TRIPOS>BOND
     1     1     2    1
     2     1    28    1
     3     1    29    1
     4     1    30    1
     5     2     3    1
     6     2    31    1
     7     2    32    1
     8     3    27    1
     9     3     4    2
    10     4     5    1
    11     4    25    1
    12     5     6    2
    13     5     7   am
    14     7     8    1
    15     7    33    1
    16     8     9    1
    17     8    24    1
    18     8    10    1
    19    10    11    1
    20    10    34    1
    21    10    35    1
    22    11    12    1
    23    11    36    1
    24    11    37    1
    25    12    13    1
    26    12    24    1
    27    13    14    1
    28    13    15    1
    29    13    16    1
    30    15    38    1
    31    15    39    1
    32    15    40    1
    33    16    23    1
    34    16    17    2
    35    17    18    1
    36    18    19    1
    37    18    22    2
    38    19    20    1
    39    19    21    1
    40    19    41    1
    41    20    42    1
    42    20    43    1
    43    20    44    1
    44    21    45    1
    45    21    46    1
    46    21    47    1
    47    22    23    1
    48    24    48    1
    49    24    49    1
    50    25    26    1
    51    26    27    2
    52    26    50    1
    53    27    51    1
@<TRIPOS>SUBSTRUCTURE
     1 ZINC001015666108        1 TEMP              0 ****  ****    0 ROOT


##########                                Name:    ZINC000285228948
##########                DOCK_Rotatable_Bonds:                   8
##########                         Heavy_Atoms:                  23
##########                    Molecular_Weight:             339.822
##########                DOCK_Rotatable_Bonds:                   8
##########                       Formal_Charge:           0.0299997
##########                     HBond_Acceptors:                   7
##########                        HBond_Donors:                   3
##########                         Heavy_Atoms:                  23
##########                          Grid_Score:          -30.124538
##########                     Grid_vdw_energy:          -29.580076
##########                      Grid_es_energy:           -0.544461
##########           Internal_energy_repulsive:           22.812307

@<TRIPOS>MOLECULE
ZINC000285228948
 45 46 1 0 0
SMALL
USER_CHARGES


@<TRIPOS>ATOM
      1 C1        -11.2042    1.2416   54.6434 C.3     1  <0>        -0.1600
      2 C2        -10.6432   -0.1746   54.4989 C.3     1  <0>         0.1800
      3 H3        -11.2893   -0.7560   53.8411 H       1  <0>         0.1100
      4 C4        -10.5835   -0.8318   55.8537 C.ar    1  <0>        -0.0900
      5 C5        -10.6747   -2.2072   55.9591 C.ar    1  <0>        -0.1000
      6 C6        -10.6201   -2.8105   57.2014 C.ar    1  <0>        -0.1100
      7 C7        -10.4741   -2.0377   58.3396 C.ar    1  <0>        -0.0300
      8 Cl8       -10.4049   -2.7948   59.9003 Cl      1  <0>        -0.0700
      9 C9        -10.3829   -0.6613   58.2336 C.ar    1  <0>        -0.1100
     10 C10       -10.4319   -0.0595   56.9902 C.ar    1  <0>        -0.0900
     11 N11        -9.2957   -0.1101   53.9276 N.am    1  <0>        -0.6100
     12 C12        -8.1502    0.2010   54.7862 C.3     1  <0>         0.0600
     13 C13        -9.1099   -0.3370   52.6121 C.2     1  <0>         0.5200
     14 O14       -10.0581   -0.5961   51.9016 O.2     1  <0>        -0.5200
     15 C15        -7.7241   -0.2689   52.0241 C.3     1  <0>         0.0300
     16 N16        -7.3640    1.1342   51.7801 N.3     1  <0>        -0.4900
     17 C17        -8.0234    1.6470   50.5520 C.3     1  <0>         0.0400
     18 C18        -7.1582    2.8746   50.1712 C.3     1  <0>        -0.1400
     19 C19        -5.7259    2.4100   50.5215 C.3     1  <0>         0.1100
     20 O20        -5.0636    1.9206   49.3536 O.3     1  <0>        -0.5400
     21 C21        -4.9420    3.5443   51.1296 C.2     1  <0>         0.5000
     22 N22        -3.6578    3.7435   50.7725 N.am    1  <0>        -0.8500
     23 O23        -5.4668    4.2780   51.9404 O.2     1  <0>        -0.5200
     24 C24        -5.9105    1.2753   51.5462 C.3     1  <0>         0.0600
     25 H25       -12.2067    1.1936   55.0685 H       1  <0>         0.0700
     26 H26       -10.5581    1.8230   55.3012 H       1  <0>         0.0600
     27 H27       -11.2473    1.7170   53.6635 H       1  <0>         0.0700
     28 H28       -10.7890   -2.8103   55.0706 H       1  <0>         0.1400
     29 H29       -10.6917   -3.8851   57.2836 H       1  <0>         0.1300
     30 H30       -10.2693   -0.0575   59.1217 H       1  <0>         0.1400
     31 H31       -10.3604    1.0150   56.9073 H       1  <0>         0.1300
     32 H32        -7.7633   -0.7194   55.2235 H       1  <0>         0.0600
     33 H33        -7.3699    0.6772   54.1925 H       1  <0>         0.0800
     34 H34        -8.4650    0.8768   55.5814 H       1  <0>         0.0800
     35 H35        -7.0117   -0.7111   52.7207 H       1  <0>         0.1100
     36 H36        -7.7013   -0.8189   51.0832 H       1  <0>         0.0700
     37 H37        -7.9982    0.8982   49.7603 H       1  <0>         0.0400
     38 H38        -9.0489    1.9500   50.7638 H       1  <0>         0.1200
     39 H39        -7.2437    3.0916   49.1064 H       1  <0>         0.0900
     40 H40        -7.4382    3.7436   50.7667 H       1  <0>         0.0900
     41 H41        -5.5235    1.1903   48.9175 H       1  <0>         0.3800
     42 H42        -3.1529    4.4729   51.1647 H       1  <0>         0.4000
     43 H43        -3.2385    3.1574   50.1231 H       1  <0>         0.4100
     44 H44        -5.4074    1.5316   52.4786 H       1  <0>         0.1100
     45 H45        -5.5065    0.3450   51.1468 H       1  <0>         0.0700
@<TRIPOS>BOND
     1     1     2    1
     2     1    25    1
     3     1    26    1
     4     1    27    1
     5     2     3    1
     6     2     4    1
     7     2    11    1
     8     4    10   ar
     9     4     5   ar
    10     5     6   ar
    11     5    28    1
    12     6     7   ar
    13     6    29    1
    14     7     8    1
    15     7     9   ar
    16     9    10   ar
    17     9    30    1
    18    10    31    1
    19    11    12    1
    20    11    13   am
    21    12    32    1
    22    12    33    1
    23    12    34    1
    24    13    14    2
    25    13    15    1
    26    15    16    1
    27    15    35    1
    28    15    36    1
    29    16    24    1
    30    16    17    1
    31    17    18    1
    32    17    37    1
    33    17    38    1
    34    18    19    1
    35    18    39    1
    36    18    40    1
    37    19    20    1
    38    19    21    1
    39    19    24    1
    40    20    41    1
    41    21    22   am
    42    21    23    2
    43    22    42    1
    44    22    43    1
    45    24    44    1
    46    24    45    1
@<TRIPOS>SUBSTRUCTURE
     1 <0>         1 TEMP              0 ****  ****    0 ROOT


##########                                Name:    ZINC000523878927
##########                DOCK_Rotatable_Bonds:                   8
##########                         Heavy_Atoms:                  27
##########                    Molecular_Weight:             376.474
##########                DOCK_Rotatable_Bonds:                   8
##########                       Formal_Charge:          0.00999957
##########                     HBond_Acceptors:                   7
##########                        HBond_Donors:                   3
##########                         Heavy_Atoms:                  27
##########                          Grid_Score:          -30.120508
##########                     Grid_vdw_energy:          -30.103558
##########                      Grid_es_energy:           -0.016951
##########           Internal_energy_repulsive:            8.358562

@<TRIPOS>MOLECULE
ZINC000523878927
 56 58 1 0 0
SMALL
USER_CHARGES


@<TRIPOS>ATOM
      1 C1         -8.9991   -1.9436   59.4037 C.3     1  ZINC000523878927   -0.1500
      2 C2         -8.2236   -0.6931   59.8229 C.3     1  ZINC000523878927   -0.0900
      3 H3         -7.1608   -0.9276   59.8822 H       1  ZINC000523878927    0.0700
      4 C4         -8.7188   -0.2208   61.1913 C.3     1  ZINC000523878927   -0.1200
      5 C5        -10.2106    0.1083   61.1080 C.3     1  ZINC000523878927   -0.1200
      6 C6        -10.4318    1.2156   60.0755 C.3     1  ZINC000523878927   -0.1100
      7 C7         -9.9365    0.7433   58.7072 C.3     1  ZINC000523878927   -0.1000
      8 H8        -10.4890   -0.1475   58.4085 H       1  ZINC000523878927    0.0800
      9 C9        -10.1576    1.8506   57.6748 C.3     1  ZINC000523878927    0.1400
     10 N10        -9.6574    1.4091   56.3704 N.am    1  ZINC000523878927   -0.7400
     11 C11       -10.3693    0.5296   55.6383 C.2     1  ZINC000523878927    0.7200
     12 O12       -11.4259    0.1014   56.0608 O.2     1  ZINC000523878927   -0.5800
     13 N13        -9.9098    0.1247   54.4377 N.am    1  ZINC000523878927   -0.6400
     14 C14       -10.5832   -0.8285   53.5368 C.3     1  ZINC000523878927    0.1000
     15 C15       -10.0395   -0.4923   52.1258 C.3     1  ZINC000523878927   -0.1400
     16 C16        -8.5609   -0.1401   52.4375 C.3     1  ZINC000523878927    0.1500
     17 H17        -7.9556   -1.0438   52.5067 H       1  ZINC000523878927    0.1100
     18 N18        -8.0195    0.7677   51.4231 N.am    1  ZINC000523878927   -0.7300
     19 C19        -6.7392    1.1812   51.5032 C.2     1  ZINC000523878927    0.7100
     20 O20        -6.0331    0.7995   52.4165 O.2     1  ZINC000523878927   -0.5700
     21 N21        -6.2415    2.0176   50.5709 N.am    1  ZINC000523878927   -0.6800
     22 C22        -4.9111    2.4473   50.6542 C.ar    1  ZINC000523878927    0.1500
     23 C23        -3.8963    1.6783   50.1004 C.ar    1  ZINC000523878927   -0.1200
     24 C24        -2.5850    2.1040   50.1832 C.ar    1  ZINC000523878927   -0.1300
     25 C25        -2.2820    3.2965   50.8185 C.ar    1  ZINC000523878927    0.0800
     26 F26        -0.9987    3.7109   50.8988 F       1  ZINC000523878927   -0.1400
     27 C27        -3.2926    4.0650   51.3710 C.ar    1  ZINC000523878927   -0.1300
     28 C28        -4.6058    3.6455   51.2857 C.ar    1  ZINC000523878927   -0.0900
     29 C29        -8.6570    0.5651   53.8067 C.3     1  ZINC000523878927    0.1200
     30 C30        -8.4447    0.4141   58.7904 C.3     1  ZINC000523878927   -0.1100
     31 H31        -8.6463   -2.2801   58.4288 H       1  ZINC000523878927    0.0500
     32 H32        -8.8416   -2.7324   60.1392 H       1  ZINC000523878927    0.0500
     33 H33       -10.0619   -1.7091   59.3443 H       1  ZINC000523878927    0.0600
     34 H34        -8.5613   -1.0096   61.9268 H       1  ZINC000523878927    0.0600
     35 H35        -8.1663    0.6701   61.4900 H       1  ZINC000523878927    0.0600
     36 H36       -10.7631   -0.7824   60.8093 H       1  ZINC000523878927    0.0700
     37 H37       -10.5634    0.4449   62.0829 H       1  ZINC000523878927    0.0600
     38 H38       -11.4946    1.4501   60.0162 H       1  ZINC000523878927    0.0600
     39 H39        -9.8792    2.1065   60.3743 H       1  ZINC000523878927    0.0600
     40 H40       -11.2225    2.0705   57.6001 H       1  ZINC000523878927    0.0700
     41 H41        -9.6220    2.7482   57.9844 H       1  ZINC000523878927    0.0700
     42 H42        -8.8139    1.7498   56.0339 H       1  ZINC000523878927    0.3900
     43 H43       -10.3270   -1.8526   53.8081 H       1  ZINC000523878927    0.0800
     44 H44       -11.6632   -0.6849   53.5714 H       1  ZINC000523878927    0.0800
     45 H45       -10.1042   -1.3575   51.4659 H       1  ZINC000523878927    0.1000
     46 H46       -10.5632    0.3629   51.6988 H       1  ZINC000523878927    0.0800
     47 H47        -8.5824    1.0712   50.6939 H       1  ZINC000523878927    0.4000
     48 H48        -6.8049    2.3220   49.8423 H       1  ZINC000523878927    0.4100
     49 H49        -4.1323    0.7477   49.6055 H       1  ZINC000523878927    0.1400
     50 H50        -1.7954    1.5061   49.7526 H       1  ZINC000523878927    0.1400
     51 H51        -3.0543    4.9949   51.8660 H       1  ZINC000523878927    0.1400
     52 H52        -5.3938    4.2454   51.7165 H       1  ZINC000523878927    0.1500
     53 H53        -8.6666    1.6461   53.6670 H       1  ZINC000523878927    0.0700
     54 H54        -7.8118    0.2775   54.4319 H       1  ZINC000523878927    0.0800
     55 H55        -7.8922    1.3051   59.0891 H       1  ZINC000523878927    0.0700
     56 H56        -8.0918    0.0777   57.8155 H       1  ZINC000523878927    0.0700
@<TRIPOS>BOND
     1     1     2    1
     2     1    31    1
     3     1    32    1
     4     1    33    1
     5     2     3    1
     6     2    30    1
     7     2     4    1
     8     4     5    1
     9     4    34    1
    10     4    35    1
    11     5     6    1
    12     5    36    1
    13     5    37    1
    14     6     7    1
    15     6    38    1
    16     6    39    1
    17     7     8    1
    18     7     9    1
    19     7    30    1
    20     9    10    1
    21     9    40    1
    22     9    41    1
    23    10    11   am
    24    10    42    1
    25    11    12    2
    26    11    13   am
    27    13    29    1
    28    13    14    1
    29    14    15    1
    30    14    43    1
    31    14    44    1
    32    15    16    1
    33    15    45    1
    34    15    46    1
    35    16    17    1
    36    16    18    1
    37    16    29    1
    38    18    19   am
    39    18    47    1
    40    19    20    2
    41    19    21   am
    42    21    22    1
    43    21    48    1
    44    22    28   ar
    45    22    23   ar
    46    23    24   ar
    47    23    49    1
    48    24    25   ar
    49    24    50    1
    50    25    26    1
    51    25    27   ar
    52    27    28   ar
    53    27    51    1
    54    28    52    1
    55    29    53    1
    56    29    54    1
    57    30    55    1
    58    30    56    1
@<TRIPOS>SUBSTRUCTURE
     1 ZINC000523878927        1 TEMP              0 ****  ****    0 ROOT


##########                                Name:    ZINC000962855438
##########                DOCK_Rotatable_Bonds:                   7
##########                         Heavy_Atoms:                  27
##########                    Molecular_Weight:             370.448
##########                DOCK_Rotatable_Bonds:                   7
##########                       Formal_Charge:           0.0300005
##########                     HBond_Acceptors:                   6
##########                        HBond_Donors:                   2
##########                         Heavy_Atoms:                  27
##########                          Grid_Score:          -30.084963
##########                     Grid_vdw_energy:          -30.019569
##########                      Grid_es_energy:           -0.065394
##########           Internal_energy_repulsive:           11.021046

@<TRIPOS>MOLECULE
ZINC000962855438
 53 56 1 0 0
SMALL
USER_CHARGES


@<TRIPOS>ATOM
      1 C1        -15.1582   -2.8115   60.1575 C.3     1  ZINC000962855438   -0.1100
      2 C2        -14.0308   -2.7094   59.1627 C.2     1  ZINC000962855438   -0.1700
      3 C3        -12.8523   -1.8840   59.4688 C.2     1  ZINC000962855438    0.5600
      4 O4        -12.7255   -1.3909   60.5733 O.2     1  ZINC000962855438   -0.5400
      5 N5        -11.9131   -1.6741   58.5253 N.am    1  ZINC000962855438   -0.7100
      6 C6        -10.7402   -0.8506   58.8296 C.3     1  ZINC000962855438    0.1500
      7 H7        -10.9860   -0.0789   59.5590 H       1  ZINC000962855438    0.1200
      8 C8        -10.1493   -0.2280   57.5401 C.3     1  ZINC000962855438    0.1000
      9 N9         -8.7317    0.0229   57.8576 N.am    1  ZINC000962855438   -0.6100
     10 C10        -7.9423    0.9364   57.2585 C.2     1  ZINC000962855438    0.5800
     11 O11        -6.7828    1.0577   57.6035 O.2     1  ZINC000962855438   -0.5200
     12 C12        -8.4854    1.7892   56.1840 C.ar    1  ZINC000962855438   -0.1500
     13 C13        -9.1501    2.9738   56.5010 C.ar    1  ZINC000962855438   -0.0600
     14 C14        -9.6593    3.7721   55.4994 C.ar    1  ZINC000962855438   -0.1500
     15 C15        -9.5144    3.3963   54.1732 C.ar    1  ZINC000962855438   -0.0500
     16 C16        -8.8624    2.2275   53.8492 C.ar    1  ZINC000962855438   -0.1800
     17 C17        -8.3285    1.4119   54.8379 C.ar    1  ZINC000962855438    0.1600
     18 O18        -7.7117    0.3261   54.3025 O.3     1  ZINC000962855438   -0.2800
     19 C19        -8.1813    0.1289   52.9580 C.3     1  ZINC000962855438    0.0700
     20 H20        -9.0504   -0.5289   52.9450 H       1  ZINC000962855438    0.0900
     21 C21        -7.0672   -0.4306   52.0711 C.3     1  ZINC000962855438   -0.1500
     22 C22        -8.5659    1.5632   52.5182 C.3     1  ZINC000962855438   -0.1100
     23 C23        -8.3219   -0.8878   58.9366 C.3     1  ZINC000962855438    0.0700
     24 C24        -9.5587   -1.7266   59.3235 C.3     1  ZINC000962855438    0.0900
     25 H25        -9.6067   -1.8675   60.4033 H       1  ZINC000962855438    0.0900
     26 O26        -9.5448   -2.9875   58.6510 O.3     1  ZINC000962855438   -0.5600
     27 C27       -14.1013   -3.3657   58.0081 C.2     1  ZINC000962855438   -0.0600
     28 C28       -15.0970   -4.2816   57.3284 C.3     1  ZINC000962855438   -0.1000
     29 C29       -13.9113   -4.8848   56.5591 C.3     1  ZINC000962855438   -0.1400
     30 C30       -13.2246   -3.5252   56.7841 C.3     1  ZINC000962855438   -0.1100
     31 H31       -15.8863   -2.0238   59.9634 H       1  ZINC000962855438    0.0700
     32 H32       -15.6407   -3.7841   60.0611 H       1  ZINC000962855438    0.0700
     33 H33       -14.7630   -2.7003   61.1672 H       1  ZINC000962855438    0.0700
     34 H34       -12.0137   -2.0683   57.6447 H       1  ZINC000962855438    0.4100
     35 H35       -10.2337   -0.9270   56.7081 H       1  ZINC000962855438    0.0800
     36 H36       -10.6563    0.7075   57.3036 H       1  ZINC000962855438    0.0900
     37 H37        -9.2665    3.2661   57.5341 H       1  ZINC000962855438    0.1400
     38 H38       -10.1714    4.6900   55.7479 H       1  ZINC000962855438    0.1400
     39 H39        -9.9151    4.0229   53.3902 H       1  ZINC000962855438    0.1300
     40 H40        -6.7489   -1.3996   52.4554 H       1  ZINC000962855438    0.0700
     41 H41        -7.4376   -0.5474   51.0527 H       1  ZINC000962855438    0.0800
     42 H42        -6.2213    0.2569   52.0733 H       1  ZINC000962855438    0.0700
     43 H43        -9.4538    1.5521   51.8863 H       1  ZINC000962855438    0.1000
     44 H44        -7.7340    2.0512   52.0103 H       1  ZINC000962855438    0.1000
     45 H45        -7.5242   -1.5427   58.5859 H       1  ZINC000962855438    0.0800
     46 H46        -7.9807   -0.3128   59.7974 H       1  ZINC000962855438    0.0800
     47 H47       -10.4193   -3.3861   58.5447 H       1  ZINC000962855438    0.3900
     48 H48       -15.5777   -4.9844   58.0089 H       1  ZINC000962855438    0.0900
     49 H49       -15.8079   -3.7559   56.6909 H       1  ZINC000962855438    0.1000
     50 H50       -13.4298   -5.7163   57.0736 H       1  ZINC000962855438    0.0900
     51 H51       -14.1282   -5.0979   55.5123 H       1  ZINC000962855438    0.0800
     52 H52       -13.4298   -2.7981   55.9984 H       1  ZINC000962855438    0.1000
     53 H53       -12.1633   -3.6067   57.0189 H       1  ZINC000962855438    0.0800
@<TRIPOS>BOND
     1     1     2    1
     2     1    31    1
     3     1    32    1
     4     1    33    1
     5     2     3    1
     6     2    27    2
     7     3     4    2
     8     3     5   am
     9     5     6    1
    10     5    34    1
    11     6     7    1
    12     6    24    1
    13     6     8    1
    14     8     9    1
    15     8    35    1
    16     8    36    1
    17     9    10   am
    18     9    23    1
    19    10    11    2
    20    10    12    1
    21    12    17   ar
    22    12    13   ar
    23    13    14   ar
    24    13    37    1
    25    14    15   ar
    26    14    38    1
    27    15    16   ar
    28    15    39    1
    29    16    22    1
    30    16    17   ar
    31    17    18    1
    32    18    19    1
    33    19    20    1
    34    19    21    1
    35    19    22    1
    36    21    40    1
    37    21    41    1
    38    21    42    1
    39    22    43    1
    40    22    44    1
    41    23    24    1
    42    23    45    1
    43    23    46    1
    44    24    25    1
    45    24    26    1
    46    26    47    1
    47    27    30    1
    48    27    28    1
    49    28    29    1
    50    28    48    1
    51    28    49    1
    52    29    30    1
    53    29    50    1
    54    29    51    1
    55    30    52    1
    56    30    53    1
@<TRIPOS>SUBSTRUCTURE
     1 ZINC000962855438        1 TEMP              0 ****  ****    0 ROOT


##########                                Name:    ZINC000498646479
##########                DOCK_Rotatable_Bonds:                   7
##########                         Heavy_Atoms:                  29
##########                    Molecular_Weight:              407.58
##########                DOCK_Rotatable_Bonds:                   7
##########                       Formal_Charge:          -0.0199997
##########                     HBond_Acceptors:                   5
##########                        HBond_Donors:                   0
##########                         Heavy_Atoms:                  29
##########                          Grid_Score:          -30.068933
##########                     Grid_vdw_energy:          -29.833448
##########                      Grid_es_energy:           -0.235486
##########           Internal_energy_repulsive:           31.523632

@<TRIPOS>MOLECULE
ZINC000498646479
 58 61 1 0 0
SMALL
USER_CHARGES


@<TRIPOS>ATOM
      1 C1        -15.4425   -0.2548   59.0022 C.3     1  ZINC000498646479   -0.1500
      2 C2        -15.2925   -1.7769   59.0422 C.3     1  ZINC000498646479   -0.0600
      3 C3        -13.9089   -2.1574   58.5817 C.2     1  ZINC000498646479   -0.1700
      4 C4        -13.5506   -2.3655   57.3138 C.2     1  ZINC000498646479   -0.1400
      5 C5        -12.2212   -2.7057   57.1317 C.2     1  ZINC000498646479   -0.1300
      6 C6        -11.5000   -2.7739   58.2518 C.2     1  ZINC000498646479   -0.1900
      7 C7        -10.0355   -3.1220   58.3221 C.3     1  ZINC000498646479    0.1300
      8 N8         -9.2675   -1.9322   58.7127 N.3     1  ZINC000498646479   -0.5300
      9 C9         -9.2075   -1.8009   60.1746 C.3     1  ZINC000498646479    0.0400
     10 C10        -8.2530   -0.6600   60.5429 C.3     1  ZINC000498646479    0.1200
     11 N11        -8.6761    0.5528   59.8265 N.am    1  ZINC000498646479   -0.6100
     12 C12        -8.8617    1.7149   60.4834 C.2     1  ZINC000498646479    0.5200
     13 O13        -9.2109    2.7054   59.8767 O.2     1  ZINC000498646479   -0.5400
     14 C14        -8.6355    1.7837   61.9717 C.3     1  ZINC000498646479   -0.1000
     15 H15        -7.7402    1.2180   62.2296 H       1  ZINC000498646479    0.0900
     16 C16        -8.4556    3.2434   62.3933 C.3     1  ZINC000498646479   -0.1500
     17 C17        -9.8425    1.1878   62.6990 C.3     1  ZINC000498646479   -0.0600
     18 C18        -9.9707    1.8203   64.0609 C.ar    1  ZINC000498646479   -0.1200
     19 C19        -9.0940    1.4656   65.1020 C.ar    1  ZINC000498646479   -0.0200
     20 C20        -8.0718    0.5211   64.9299 C.ar    1  ZINC000498646479   -0.1200
     21 C21        -7.2542    0.2200   65.9769 C.ar    1  ZINC000498646479   -0.1000
     22 C22        -7.4181    0.8355   67.2167 C.ar    1  ZINC000498646479   -0.1200
     23 C23        -8.3999    1.7570   67.4198 C.ar    1  ZINC000498646479   -0.0900
     24 C24        -9.2617    2.0935   66.3640 C.ar    1  ZINC000498646479   -0.1100
     25 C25       -10.2912    3.0363   66.5135 C.ar    1  ZINC000498646479    0.1400
     26 N26       -11.0720    3.3188   65.4968 N.ar    1  ZINC000498646479   -0.4800
     27 C27       -10.9342    2.7511   64.3066 C.ar    1  ZINC000498646479    0.0800
     28 C28        -8.8911    0.4638   58.3742 C.3     1  ZINC000498646479    0.1100
     29 C29        -9.8203   -0.7213   58.0913 C.3     1  ZINC000498646479    0.0400
     30 S30       -12.5179   -2.3875   59.6332 S.3     1  ZINC000498646479    0.1300
     31 H31       -16.4433    0.0206   59.3352 H       1  ZINC000498646479    0.0600
     32 H32       -14.7025    0.2008   59.6602 H       1  ZINC000498646479    0.0600
     33 H33       -15.2889    0.0989   57.9827 H       1  ZINC000498646479    0.0600
     34 H34       -15.4461   -2.1304   60.0617 H       1  ZINC000498646479    0.0800
     35 H35       -16.0325   -2.2323   58.3843 H       1  ZINC000498646479    0.0700
     36 H36       -14.2451   -2.2758   56.4917 H       1  ZINC000498646479    0.1400
     37 H37       -11.8000   -2.9016   56.1567 H       1  ZINC000498646479    0.1300
     38 H38        -9.8843   -3.9102   59.0596 H       1  ZINC000498646479    0.0900
     39 H39        -9.6970   -3.4684   57.3456 H       1  ZINC000498646479    0.0500
     40 H40       -10.2026   -1.5817   60.5613 H       1  ZINC000498646479    0.0400
     41 H41        -8.8451   -2.7327   60.6088 H       1  ZINC000498646479    0.1000
     42 H42        -8.2918   -0.4828   61.6177 H       1  ZINC000498646479    0.1000
     43 H43        -7.2369   -0.9233   60.2488 H       1  ZINC000498646479    0.0800
     44 H44        -8.2087    3.2874   63.4541 H       1  ZINC000498646479    0.0700
     45 H45        -7.6489    3.6922   61.8136 H       1  ZINC000498646479    0.0600
     46 H46        -9.3807    3.7905   62.2126 H       1  ZINC000498646479    0.0700
     47 H47       -10.7466    1.3816   62.1219 H       1  ZINC000498646479    0.0900
     48 H48        -9.7054    0.1121   62.8095 H       1  ZINC000498646479    0.0800
     49 H49        -7.9340    0.0362   63.9748 H       1  ZINC000498646479    0.1400
     50 H50        -6.4668   -0.5073   65.8445 H       1  ZINC000498646479    0.1300
     51 H51        -6.7559    0.5770   68.0296 H       1  ZINC000498646479    0.1300
     52 H52        -8.5146    2.2255   68.3860 H       1  ZINC000498646479    0.1300
     53 H53       -10.4407    3.5280   67.4634 H       1  ZINC000498646479    0.1600
     54 H54       -11.6106    3.0285   63.5116 H       1  ZINC000498646479    0.1500
     55 H55        -9.3516    1.3842   58.0152 H       1  ZINC000498646479    0.0900
     56 H56        -7.9363    0.3087   57.8717 H       1  ZINC000498646479    0.0800
     57 H57        -9.9025   -0.8701   57.0146 H       1  ZINC000498646479    0.0900
     58 H58       -10.8070   -0.5171   58.5071 H       1  ZINC000498646479    0.0400
@<TRIPOS>BOND
     1     1     2    1
     2     1    31    1
     3     1    32    1
     4     1    33    1
     5     2     3    1
     6     2    34    1
     7     2    35    1
     8     3    30    1
     9     3     4    2
    10     4     5    1
    11     4    36    1
    12     5     6    2
    13     5    37    1
    14     6     7    1
    15     6    30    1
    16     7     8    1
    17     7    38    1
    18     7    39    1
    19     8    29    1
    20     8     9    1
    21     9    10    1
    22     9    40    1
    23     9    41    1
    24    10    11    1
    25    10    42    1
    26    10    43    1
    27    11    12   am
    28    11    28    1
    29    12    13    2
    30    12    14    1
    31    14    15    1
    32    14    16    1
    33    14    17    1
    34    16    44    1
    35    16    45    1
    36    16    46    1
    37    17    18    1
    38    17    47    1
    39    17    48    1
    40    18    27   ar
    41    18    19   ar
    42    19    24   ar
    43    19    20   ar
    44    20    21   ar
    45    20    49    1
    46    21    22   ar
    47    21    50    1
    48    22    23   ar
    49    22    51    1
    50    23    24   ar
    51    23    52    1
    52    24    25   ar
    53    25    26   ar
    54    25    53    1
    55    26    27   ar
    56    27    54    1
    57    28    29    1
    58    28    55    1
    59    28    56    1
    60    29    57    1
    61    29    58    1
@<TRIPOS>SUBSTRUCTURE
     1 ZINC000498646479        1 TEMP              0 ****  ****    0 ROOT


##########                                Name:    ZINC000971513996
##########                DOCK_Rotatable_Bonds:                   6
##########                         Heavy_Atoms:                  27
##########                    Molecular_Weight:             369.464
##########                DOCK_Rotatable_Bonds:                   6
##########                       Formal_Charge:          -0.0300002
##########                     HBond_Acceptors:                   6
##########                        HBond_Donors:                   1
##########                         Heavy_Atoms:                  27
##########                          Grid_Score:          -30.063799
##########                     Grid_vdw_energy:          -30.772657
##########                      Grid_es_energy:            0.708858
##########           Internal_energy_repulsive:           17.324417

@<TRIPOS>MOLECULE
ZINC000971513996
 54 57 1 0 0
SMALL
USER_CHARGES


@<TRIPOS>ATOM
      1 C1        -15.5106    0.3090   59.8141 C.3     1  ZINC000971513996   -0.1600
      2 C2        -14.7337   -0.5658   58.8281 C.3     1  ZINC000971513996   -0.1400
      3 C3        -14.3056   -1.8602   59.5224 C.3     1  ZINC000971513996    0.0800
      4 H4        -14.7065   -1.8785   60.5359 H       1  ZINC000971513996    0.0800
      5 O5        -14.8070   -2.9811   58.7915 O.3     1  ZINC000971513996   -0.3600
      6 C6        -15.8779   -3.6677   59.4426 C.3     1  ZINC000971513996    0.0200
      7 C7        -12.8011   -1.9276   59.5760 C.2     1  ZINC000971513996    0.5400
      8 O8        -12.2039   -1.4196   60.5013 O.2     1  ZINC000971513996   -0.5100
      9 N9        -12.1192   -2.5526   58.5958 N.am    1  ZINC000971513996   -0.6400
     10 C10       -12.4502   -3.2673   57.3512 C.3     1  ZINC000971513996    0.1000
     11 C11       -11.0795   -2.8213   56.8067 C.3     1  ZINC000971513996   -0.1200
     12 H12       -10.5592   -3.5644   56.2024 H       1  ZINC000971513996    0.1100
     13 C13       -11.1610   -1.4395   56.1534 C.3     1  ZINC000971513996   -0.1200
     14 C14        -9.8840   -0.6558   56.4709 C.3     1  ZINC000971513996    0.1100
     15 N15        -9.7574   -0.5551   57.9272 N.am    1  ZINC000971513996   -0.6000
     16 C16        -9.6573    0.6573   58.5074 C.2     1  ZINC000971513996    0.5900
     17 O17        -9.6723    1.6624   57.8224 O.2     1  ZINC000971513996   -0.5200
     18 C18        -9.5300    0.7650   59.9685 C.2     1  ZINC000971513996    0.0200
     19 C19        -8.5184    0.2446   60.7114 C.2     1  ZINC000971513996   -0.1000
     20 C20        -8.7681    0.5687   62.0670 C.ar    1  ZINC000971513996   -0.1100
     21 C21        -8.0848    0.3051   63.2608 C.ar    1  ZINC000971513996   -0.0600
     22 C22        -8.5868    0.7606   64.4452 C.ar    1  ZINC000971513996   -0.1200
     23 C23        -7.8490    0.4752   65.7279 C.3     1  ZINC000971513996   -0.1100
     24 C24        -9.7711    1.4855   64.4795 C.ar    1  ZINC000971513996   -0.0800
     25 C25       -10.4614    1.7576   63.3194 C.ar    1  ZINC000971513996   -0.1300
     26 C26        -9.9700    1.3033   62.0990 C.ar    1  ZINC000971513996    0.1100
     27 N27       -10.4167    1.4168   60.8037 N.pl3   1  ZINC000971513996   -0.5800
     28 C28        -9.7393   -1.7553   58.7532 C.3     1  ZINC000971513996    0.0700
     29 C29       -10.7138   -2.8224   58.2836 C.3     1  ZINC000971513996    0.1300
     30 H30       -10.4122   -3.8117   58.6276 H       1  ZINC000971513996    0.1100
     31 H31       -15.7254    1.2732   59.3533 H       1  ZINC000971513996    0.0600
     32 H32       -16.4462   -0.1839   60.0782 H       1  ZINC000971513996    0.0600
     33 H33       -14.9136    0.4610   60.7134 H       1  ZINC000971513996    0.0600
     34 H34       -15.3692   -0.8040   57.9751 H       1  ZINC000971513996    0.0800
     35 H35       -13.8499   -0.0286   58.4840 H       1  ZINC000971513996    0.0800
     36 H36       -15.5112   -4.1238   60.3621 H       1  ZINC000971513996    0.0400
     37 H37       -16.6722   -2.9600   59.6797 H       1  ZINC000971513996    0.0500
     38 H38       -16.2669   -4.4429   58.7825 H       1  ZINC000971513996    0.0900
     39 H39       -12.5375   -4.3462   57.4790 H       1  ZINC000971513996    0.0900
     40 H40       -13.2937   -2.8355   56.8126 H       1  ZINC000971513996    0.0800
     41 H41       -11.2601   -1.5524   55.0739 H       1  ZINC000971513996    0.0900
     42 H42       -12.0248   -0.9020   56.5450 H       1  ZINC000971513996    0.0700
     43 H43        -9.0200   -1.1799   56.0622 H       1  ZINC000971513996    0.0800
     44 H44        -9.9480    0.3423   56.0375 H       1  ZINC000971513996    0.1000
     45 H45        -7.6752   -0.3157   60.3355 H       1  ZINC000971513996    0.1500
     46 H46        -7.1631   -0.2577   63.2441 H       1  ZINC000971513996    0.1200
     47 H47        -7.1404    1.2794   65.9262 H       1  ZINC000971513996    0.0700
     48 H48        -8.5617    0.4080   66.5498 H       1  ZINC000971513996    0.0600
     49 H49        -7.3110   -0.4683   65.6354 H       1  ZINC000971513996    0.0600
     50 H50       -10.1547    1.8388   65.4253 H       1  ZINC000971513996    0.1300
     51 H51       -11.3817    2.3217   63.3564 H       1  ZINC000971513996    0.1200
     52 H52       -11.2225    1.8778   60.5226 H       1  ZINC000971513996    0.4200
     53 H53        -8.7356   -2.1799   58.7335 H       1  ZINC000971513996    0.0800
     54 H54        -9.9810   -1.4788   59.7796 H       1  ZINC000971513996    0.1200
@<TRIPOS>BOND
     1     1     2    1
     2     1    31    1
     3     1    32    1
     4     1    33    1
     5     2     3    1
     6     2    34    1
     7     2    35    1
     8     3     4    1
     9     3     5    1
    10     3     7    1
    11     5     6    1
    12     6    36    1
    13     6    37    1
    14     6    38    1
    15     7     8    2
    16     7     9   am
    17     9    29    1
    18     9    10    1
    19    10    11    1
    20    10    39    1
    21    10    40    1
    22    11    12    1
    23    11    29    1
    24    11    13    1
    25    13    14    1
    26    13    41    1
    27    13    42    1
    28    14    15    1
    29    14    43    1
    30    14    44    1
    31    15    16   am
    32    15    28    1
    33    16    17    2
    34    16    18    1
    35    18    27    1
    36    18    19    2
    37    19    20    1
    38    19    45    1
    39    20    26   ar
    40    20    21   ar
    41    21    22   ar
    42    21    46    1
    43    22    23    1
    44    22    24   ar
    45    23    47    1
    46    23    48    1
    47    23    49    1
    48    24    25   ar
    49    24    50    1
    50    25    26   ar
    51    25    51    1
    52    26    27    1
    53    27    52    1
    54    28    29    1
    55    28    53    1
    56    28    54    1
    57    29    30    1
@<TRIPOS>SUBSTRUCTURE
     1 ZINC000971513996        1 TEMP              0 ****  ****    0 ROOT


##########                                Name:    ZINC000132775118
##########                DOCK_Rotatable_Bonds:                   5
##########                         Heavy_Atoms:                  27
##########                    Molecular_Weight:             376.499
##########                DOCK_Rotatable_Bonds:                   5
##########                       Formal_Charge:        -4.76837e-07
##########                     HBond_Acceptors:                   7
##########                        HBond_Donors:                   1
##########                         Heavy_Atoms:                  27
##########                          Grid_Score:          -30.048429
##########                     Grid_vdw_energy:          -28.240622
##########                      Grid_es_energy:           -1.807808
##########           Internal_energy_repulsive:           23.031685

@<TRIPOS>MOLECULE
ZINC000132775118
 59 62 1 0 0
SMALL
USER_CHARGES


@<TRIPOS>ATOM
      1 O1         -9.6197    4.8488   55.2927 O.2     1  ZINC000132775118   -0.5200
      2 C2         -8.5637    4.2625   55.4021 C.2     1  ZINC000132775118    0.5200
      3 C3         -7.7012    4.0307   54.1883 C.3     1  ZINC000132775118    0.0300
      4 N4         -7.8363    2.6348   53.7511 N.3     1  ZINC000132775118   -0.5100
      5 C5         -9.2180    2.1613   53.9194 C.3     1  ZINC000132775118    0.0300
      6 C6         -9.3997    0.8177   53.2743 C.2     1  ZINC000132775118    0.5300
      7 O7        -10.3816    0.1670   53.5634 O.2     1  ZINC000132775118   -0.5500
      8 N8         -8.5302    0.3028   52.3944 N.am    1  ZINC000132775118   -0.7200
      9 C9         -7.2931    0.9865   52.0432 C.3     1  ZINC000132775118    0.1500
     10 H10        -6.4785    0.5713   52.6368 H       1  ZINC000132775118    0.0800
     11 C11        -6.9608    0.8220   50.5619 C.3     1  ZINC000132775118   -0.1300
     12 C12        -5.6214    1.5085   50.2755 C.3     1  ZINC000132775118   -0.1200
     13 C13        -5.7085    2.9927   50.6320 C.3     1  ZINC000132775118   -0.1200
     14 C14        -6.0717    3.1556   52.1113 C.3     1  ZINC000132775118   -0.1200
     15 C15        -7.4219    2.4795   52.3521 C.3     1  ZINC000132775118    0.0700
     16 H16        -8.1743    2.9344   51.7080 H       1  ZINC000132775118    0.0600
     17 N17        -8.1589    3.8233   56.6103 N.am    1  ZINC000132775118   -0.6200
     18 C18        -8.9916    4.0367   57.8019 C.3     1  ZINC000132775118    0.1100
     19 C19        -9.2169    2.6885   58.4938 C.3     1  ZINC000132775118   -0.1200
     20 C20        -7.8635    2.0349   58.7816 C.3     1  ZINC000132775118   -0.1000
     21 C21        -8.0801    0.7240   59.4927 C.2     1  ZINC000132775118    0.5300
     22 O22        -8.0904   -0.3128   58.8635 O.2     1  ZINC000132775118   -0.5300
     23 N23        -8.2624    0.7038   60.8279 N.am    1  ZINC000132775118   -0.6200
     24 C24        -8.2796    1.8813   61.7082 C.3     1  ZINC000132775118    0.1000
     25 C25        -8.4918    1.3726   63.1497 C.3     1  ZINC000132775118   -0.1300
     26 C26        -8.0168   -0.1023   63.0712 C.3     1  ZINC000132775118   -0.1300
     27 C27        -8.4839   -0.5019   61.6468 C.3     1  ZINC000132775118    0.1000
     28 C28        -7.1255    1.7845   57.4644 C.3     1  ZINC000132775118   -0.1200
     29 C29        -6.8793    3.1170   56.7599 C.3     1  ZINC000132775118    0.1200
     30 H30        -8.0184    4.6955   53.3849 H       1  ZINC000132775118    0.0700
     31 H31        -6.6599    4.2340   54.4384 H       1  ZINC000132775118    0.1200
     32 H32        -9.4438    2.0827   54.9829 H       1  ZINC000132775118    0.1300
     33 H33        -9.9010    2.8758   53.4598 H       1  ZINC000132775118    0.0700
     34 H34        -8.7304   -0.5507   51.9792 H       1  ZINC000132775118    0.4000
     35 H35        -6.8867   -0.2382   50.3198 H       1  ZINC000132775118    0.0800
     36 H36        -7.7434    1.2822   49.9588 H       1  ZINC000132775118    0.0700
     37 H37        -4.8390    1.0386   50.8716 H       1  ZINC000132775118    0.0700
     38 H38        -5.3801    1.4040   49.2176 H       1  ZINC000132775118    0.0700
     39 H39        -4.7461    3.4677   50.4413 H       1  ZINC000132775118    0.0700
     40 H40        -6.4728    3.4682   50.0172 H       1  ZINC000132775118    0.0600
     41 H41        -5.3038    2.6903   52.7292 H       1  ZINC000132775118    0.0800
     42 H42        -6.1459    4.2156   52.3545 H       1  ZINC000132775118    0.0700
     43 H43        -8.4842    4.7177   58.4852 H       1  ZINC000132775118    0.0800
     44 H44        -9.9513    4.4604   57.5060 H       1  ZINC000132775118    0.0900
     45 H45        -9.7518    2.8452   59.4304 H       1  ZINC000132775118    0.0800
     46 H46        -9.8034    2.0395   57.8435 H       1  ZINC000132775118    0.0800
     47 H47        -7.2677    2.6956   59.4114 H       1  ZINC000132775118    0.0900
     48 H48        -7.3293    2.4105   61.6380 H       1  ZINC000132775118    0.0700
     49 H49        -9.0973    2.5440   61.4249 H       1  ZINC000132775118    0.0700
     50 H50        -7.8796    1.9381   63.8522 H       1  ZINC000132775118    0.0800
     51 H51        -9.5450    1.4244   63.4258 H       1  ZINC000132775118    0.0800
     52 H52        -6.9328   -0.1691   63.1636 H       1  ZINC000132775118    0.0800
     53 H53        -8.5102   -0.7125   63.8277 H       1  ZINC000132775118    0.0900
     54 H54        -9.5398   -0.7722   61.6558 H       1  ZINC000132775118    0.0700
     55 H55        -7.8829   -1.3289   61.2687 H       1  ZINC000132775118    0.0800
     56 H56        -6.1718    1.2977   57.6685 H       1  ZINC000132775118    0.0800
     57 H57        -7.7317    1.1439   56.8239 H       1  ZINC000132775118    0.0800
     58 H58        -6.4434    2.9359   55.7774 H       1  ZINC000132775118    0.1000
     59 H59        -6.2001    3.7258   57.3567 H       1  ZINC000132775118    0.0700
@<TRIPOS>BOND
     1     1     2    2
     2     2     3    1
     3     2    17   am
     4     3     4    1
     5     3    30    1
     6     3    31    1
     7     4    15    1
     8     4     5    1
     9     5     6    1
    10     5    32    1
    11     5    33    1
    12     6     7    2
    13     6     8   am
    14     8     9    1
    15     8    34    1
    16     9    10    1
    17     9    15    1
    18     9    11    1
    19    11    12    1
    20    11    35    1
    21    11    36    1
    22    12    13    1
    23    12    37    1
    24    12    38    1
    25    13    14    1
    26    13    39    1
    27    13    40    1
    28    14    15    1
    29    14    41    1
    30    14    42    1
    31    15    16    1
    32    17    29    1
    33    17    18    1
    34    18    19    1
    35    18    43    1
    36    18    44    1
    37    19    20    1
    38    19    45    1
    39    19    46    1
    40    20    21    1
    41    20    28    1
    42    20    47    1
    43    21    22    2
    44    21    23   am
    45    23    27    1
    46    23    24    1
    47    24    25    1
    48    24    48    1
    49    24    49    1
    50    25    26    1
    51    25    50    1
    52    25    51    1
    53    26    27    1
    54    26    52    1
    55    26    53    1
    56    27    54    1
    57    27    55    1
    58    28    29    1
    59    28    56    1
    60    28    57    1
    61    29    58    1
    62    29    59    1
@<TRIPOS>SUBSTRUCTURE
     1 ZINC000132775118        1 TEMP              0 ****  ****    0 ROOT


##########                                Name:    ZINC000194290865
##########                DOCK_Rotatable_Bonds:                   7
##########                         Heavy_Atoms:                  28
##########                    Molecular_Weight:             387.479
##########                DOCK_Rotatable_Bonds:                   7
##########                       Formal_Charge:          -0.0400003
##########                     HBond_Acceptors:                   7
##########                        HBond_Donors:                   0
##########                         Heavy_Atoms:                  28
##########                          Grid_Score:          -30.038282
##########                     Grid_vdw_energy:          -29.939102
##########                      Grid_es_energy:           -0.099181
##########           Internal_energy_repulsive:           28.399628

@<TRIPOS>MOLECULE
ZINC000194290865
 57 59 1 0 0
SMALL
USER_CHARGES


@<TRIPOS>ATOM
      1 C1        -13.3375    0.7916   61.1548 C.3     1  ZINC000194290865   -0.1500
      2 C2        -14.4730   -0.2039   61.4006 C.3     1  ZINC000194290865    0.0600
      3 O3        -14.4633   -1.2159   60.3595 O.3     1  ZINC000194290865   -0.3600
      4 C4        -14.8341   -0.8282   59.1292 C.2     1  ZINC000194290865    0.4700
      5 O5        -15.6661    0.0376   58.9937 O.2     1  ZINC000194290865   -0.4900
      6 C6        -14.2130   -1.4726   57.9167 C.3     1  ZINC000194290865   -0.0600
      7 C7        -15.1421   -2.5498   57.3537 C.3     1  ZINC000194290865   -0.0700
      8 C8        -15.5192   -3.5304   58.4661 C.3     1  ZINC000194290865   -0.1700
      9 C9        -16.4090   -1.8931   56.8018 C.3     1  ZINC000194290865   -0.1600
     10 C10       -13.9077   -0.4067   56.8390 C.3     1  ZINC000194290865   -0.1200
     11 C11       -12.4086   -0.0958   57.0773 C.3     1  ZINC000194290865    0.0900
     12 N12       -11.8387   -1.4178   57.4255 N.am    1  ZINC000194290865   -0.6100
     13 C13       -10.6447   -1.9130   57.0440 C.2     1  ZINC000194290865    0.5800
     14 O14       -10.3025   -3.0213   57.4068 O.2     1  ZINC000194290865   -0.5000
     15 C15        -9.7502   -1.1071   56.1831 C.ar    1  ZINC000194290865    0.0100
     16 C16        -8.8203   -0.2083   56.7402 C.ar    1  ZINC000194290865   -0.2200
     17 C17        -7.9895    0.5381   55.8867 C.ar    1  ZINC000194290865    0.3000
     18 N18        -8.0856    0.3925   54.5741 N.ar    1  ZINC000194290865   -0.4700
     19 C19        -8.9449   -0.4394   54.0253 C.ar    1  ZINC000194290865    0.2100
     20 C20        -8.9994   -0.5544   52.5237 C.3     1  ZINC000194290865   -0.1100
     21 C21        -9.7964   -1.2169   54.7935 C.ar    1  ZINC000194290865   -0.1800
     22 O22        -7.2095    1.3062   56.6739 O.3     1  ZINC000194290865   -0.0800
     23 N23        -7.5270    1.0644   58.0296 N.2     1  ZINC000194290865   -0.2600
     24 C24        -8.4720    0.1777   58.1070 C.2     1  ZINC000194290865    0.1600
     25 C25        -9.0951   -0.3550   59.3716 C.3     1  ZINC000194290865   -0.0400
     26 C26        -8.4064   -1.6623   59.7681 C.3     1  ZINC000194290865   -0.1500
     27 C27        -8.9273    0.6709   60.4942 C.3     1  ZINC000194290865   -0.1400
     28 C28       -12.8446   -2.0809   58.2762 C.3     1  ZINC000194290865    0.1200
     29 H29       -12.3833    0.2650   61.1689 H       1  ZINC000194290865    0.0700
     30 H30       -13.4755    1.2676   60.1840 H       1  ZINC000194290865    0.0700
     31 H31       -13.3449    1.5514   61.9363 H       1  ZINC000194290865    0.0800
     32 H32       -14.3350   -0.6799   62.3714 H       1  ZINC000194290865    0.0700
     33 H33       -15.4273    0.3227   61.3865 H       1  ZINC000194290865    0.0700
     34 H34       -14.6330   -3.0867   56.5533 H       1  ZINC000194290865    0.0900
     35 H35       -14.6167   -3.9983   58.8593 H       1  ZINC000194290865    0.0500
     36 H36       -16.0284   -2.9934   59.2665 H       1  ZINC000194290865    0.0800
     37 H37       -16.1811   -4.2979   58.0650 H       1  ZINC000194290865    0.0600
     38 H38       -16.1404   -1.1945   56.0093 H       1  ZINC000194290865    0.0500
     39 H39       -17.0710   -2.6605   56.4006 H       1  ZINC000194290865    0.0600
     40 H40       -16.9181   -1.3561   57.6021 H       1  ZINC000194290865    0.0800
     41 H41       -14.0636   -0.8127   55.8395 H       1  ZINC000194290865    0.0900
     42 H42       -14.5161    0.4842   56.9942 H       1  ZINC000194290865    0.0900
     43 H43       -11.9479    0.2948   56.1700 H       1  ZINC000194290865    0.0900
     44 H44       -12.2877    0.6050   57.9035 H       1  ZINC000194290865    0.0900
     45 H45        -8.3085   -1.3301   52.1934 H       1  ZINC000194290865    0.0900
     46 H46       -10.0121   -0.8146   52.2157 H       1  ZINC000194290865    0.0900
     47 H47        -8.7168    0.3983   52.0759 H       1  ZINC000194290865    0.0900
     48 H48       -10.4936   -1.8934   54.3216 H       1  ZINC000194290865    0.1600
     49 H49       -10.1562   -0.5397   59.2039 H       1  ZINC000194290865    0.1100
     50 H50        -7.3453   -1.4776   59.9358 H       1  ZINC000194290865    0.0700
     51 H51        -8.8570   -2.0476   60.6828 H       1  ZINC000194290865    0.0700
     52 H52        -8.5259   -2.3932   58.9684 H       1  ZINC000194290865    0.0600
     53 H53        -9.4181    1.6023   60.2117 H       1  ZINC000194290865    0.0600
     54 H54        -9.3780    0.2856   61.4088 H       1  ZINC000194290865    0.0700
     55 H55        -7.8663    0.8557   60.6619 H       1  ZINC000194290865    0.0600
     56 H56       -12.6213   -1.8973   59.3271 H       1  ZINC000194290865    0.0800
     57 H57       -12.8508   -3.1525   58.0770 H       1  ZINC000194290865    0.1000
@<TRIPOS>BOND
     1     1     2    1
     2     1    29    1
     3     1    30    1
     4     1    31    1
     5     2     3    1
     6     2    32    1
     7     2    33    1
     8     3     4    1
     9     4     5    2
    10     4     6    1
    11     6    28    1
    12     6     7    1
    13     6    10    1
    14     7     8    1
    15     7     9    1
    16     7    34    1
    17     8    35    1
    18     8    36    1
    19     8    37    1
    20     9    38    1
    21     9    39    1
    22     9    40    1
    23    10    11    1
    24    10    41    1
    25    10    42    1
    26    11    12    1
    27    11    43    1
    28    11    44    1
    29    12    13   am
    30    12    28    1
    31    13    14    2
    32    13    15    1
    33    15    21   ar
    34    15    16   ar
    35    16    24    1
    36    16    17   ar
    37    17    18   ar
    38    17    22    1
    39    18    19   ar
    40    19    20    1
    41    19    21   ar
    42    20    45    1
    43    20    46    1
    44    20    47    1
    45    21    48    1
    46    22    23    1
    47    23    24    2
    48    24    25    1
    49    25    26    1
    50    25    27    1
    51    25    49    1
    52    26    50    1
    53    26    51    1
    54    26    52    1
    55    27    53    1
    56    27    54    1
    57    27    55    1
    58    28    56    1
    59    28    57    1
@<TRIPOS>SUBSTRUCTURE
     1 ZINC000194290865        1 TEMP              0 ****  ****    0 ROOT


##########                                Name:    ZINC000579444893
##########                DOCK_Rotatable_Bonds:                   8
##########                         Heavy_Atoms:                  26
##########                    Molecular_Weight:             365.494
##########                DOCK_Rotatable_Bonds:                   8
##########                       Formal_Charge:         -0.00999993
##########                     HBond_Acceptors:                   7
##########                        HBond_Donors:                   1
##########                         Heavy_Atoms:                  26
##########                          Grid_Score:          -30.034372
##########                     Grid_vdw_energy:          -29.728252
##########                      Grid_es_energy:           -0.306119
##########           Internal_energy_repulsive:           30.527670

@<TRIPOS>MOLECULE
ZINC000579444893
 58 60 1 0 0
SMALL
USER_CHARGES


@<TRIPOS>ATOM
      1 C1         -8.1462   -1.0224   60.2180 C.3     1  ZINC000579444893   -0.1600
      2 C2         -9.3091   -0.2210   59.6293 C.3     1  ZINC000579444893    0.1700
      3 H3         -9.0637    0.8409   59.6457 H       1  ZINC000579444893    0.0900
      4 N4         -9.5451   -0.6463   58.2474 N.am    1  ZINC000579444893   -0.7400
      5 C5         -8.8107   -0.1223   57.2462 C.2     1  ZINC000579444893    0.7100
      6 O6         -7.9531    0.7047   57.4898 O.2     1  ZINC000579444893   -0.5900
      7 N7         -9.0267   -0.5148   55.9751 N.am    1  ZINC000579444893   -0.6300
      8 C8        -10.0585   -1.5124   55.6819 C.3     1  ZINC000579444893    0.0800
      9 C9         -8.2296    0.0562   54.8867 C.3     1  ZINC000579444893    0.1100
     10 C10        -8.8621    1.3713   54.4269 C.3     1  ZINC000579444893    0.0600
     11 H11        -8.8624    2.0892   55.2470 H       1  ZINC000579444893    0.1000
     12 C12       -10.3077    1.1196   53.9490 C.3     1  ZINC000579444893   -0.1600
     13 C13       -10.4406    2.0638   52.7251 C.3     1  ZINC000579444893    0.0800
     14 H14       -10.6763    3.0804   53.0399 H       1  ZINC000579444893    0.1000
     15 F15       -11.3992    1.5857   51.8252 F       1  ZINC000579444893   -0.2000
     16 C16        -9.0188    1.9873   52.1151 C.3     1  ZINC000579444893    0.0200
     17 N17        -8.1091    1.9172   53.2827 N.3     1  ZINC000579444893   -0.5000
     18 C18        -6.9324    1.0900   52.9844 C.3     1  ZINC000579444893    0.1000
     19 C19        -6.1314    1.7346   51.8826 C.2     1  ZINC000579444893    0.0800
     20 C20        -5.9409    1.2369   50.6388 C.2     1  ZINC000579444893   -0.2500
     21 C21        -5.1417    2.1409   49.9312 C.2     1  ZINC000579444893    0.0400
     22 N22        -4.8625    3.1453   50.7220 N.2     1  ZINC000579444893   -0.2900
     23 N23        -5.4805    2.9143   51.9577 N.pl3   1  ZINC000579444893   -0.3700
     24 C24        -5.4227    3.7937   53.1280 C.3     1  ZINC000579444893    0.0900
     25 C25       -10.5699   -0.4659   60.4607 C.3     1  ZINC000579444893   -0.1000
     26 C26       -11.7799    0.2774   59.8423 C.3     1  ZINC000579444893   -0.1200
     27 C27       -12.9880   -0.5264   60.3840 C.3     1  ZINC000579444893   -0.1300
     28 C28       -12.5095   -1.9927   60.3574 C.3     1  ZINC000579444893   -0.1300
     29 C29       -10.9720   -1.9542   60.4061 C.3     1  ZINC000579444893   -0.1200
     30 H30        -7.2725   -0.9211   59.5743 H       1  ZINC000579444893    0.0600
     31 H31        -7.9107   -0.6435   61.2125 H       1  ZINC000579444893    0.0700
     32 H32        -8.4271   -2.0733   60.2867 H       1  ZINC000579444893    0.0500
     33 H33       -10.2299   -1.3051   58.0530 H       1  ZINC000579444893    0.4000
     34 H34       -11.0254   -1.0182   55.5876 H       1  ZINC000579444893    0.0600
     35 H35        -9.8177   -2.0207   54.7482 H       1  ZINC000579444893    0.0800
     36 H36       -10.1003   -2.2408   56.4918 H       1  ZINC000579444893    0.0700
     37 H37        -7.2155    0.2445   55.2391 H       1  ZINC000579444893    0.0900
     38 H38        -8.2000   -0.6440   54.0519 H       1  ZINC000579444893    0.0900
     39 H39       -10.4392    0.0799   53.6497 H       1  ZINC000579444893    0.1100
     40 H40       -11.0230    1.3918   54.7251 H       1  ZINC000579444893    0.0800
     41 H41        -8.9176    1.0936   51.4994 H       1  ZINC000579444893    0.0600
     42 H42        -8.8099    2.8804   51.5263 H       1  ZINC000579444893    0.0900
     43 H43        -6.3148    1.0008   53.8781 H       1  ZINC000579444893    0.1100
     44 H44        -7.2561    0.0990   52.6662 H       1  ZINC000579444893    0.0500
     45 H45        -6.3358    0.3060   50.2594 H       1  ZINC000579444893    0.1500
     46 H46        -4.8117    2.0289   48.9090 H       1  ZINC000579444893    0.1800
     47 H47        -6.2796    4.4674   53.1189 H       1  ZINC000579444893    0.0800
     48 H48        -5.4435    3.1917   54.0363 H       1  ZINC000579444893    0.0800
     49 H49        -4.5021    4.3766   53.0993 H       1  ZINC000579444893    0.0900
     50 H50       -10.4126   -0.1508   61.4923 H       1  ZINC000579444893    0.0800
     51 H51       -11.8167    1.3103   60.1883 H       1  ZINC000579444893    0.0700
     52 H52       -11.7443    0.2346   58.7538 H       1  ZINC000579444893    0.0700
     53 H53       -13.2236   -0.2205   61.4033 H       1  ZINC000579444893    0.0700
     54 H54       -13.8545   -0.3961   59.7358 H       1  ZINC000579444893    0.0700
     55 H55       -12.8973   -2.5279   61.2242 H       1  ZINC000579444893    0.0600
     56 H56       -12.8418   -2.4774   59.4394 H       1  ZINC000579444893    0.0600
     57 H57       -10.5582   -2.4202   59.5119 H       1  ZINC000579444893    0.0600
     58 H58       -10.6136   -2.4707   61.2966 H       1  ZINC000579444893    0.0600
@<TRIPOS>BOND
     1     1     2    1
     2     1    30    1
     3     1    31    1
     4     1    32    1
     5     2     3    1
     6     2     4    1
     7     2    25    1
     8     4     5   am
     9     4    33    1
    10     5     6    2
    11     5     7   am
    12     7     8    1
    13     7     9    1
    14     8    34    1
    15     8    35    1
    16     8    36    1
    17     9    10    1
    18     9    37    1
    19     9    38    1
    20    10    11    1
    21    10    17    1
    22    10    12    1
    23    12    13    1
    24    12    39    1
    25    12    40    1
    26    13    14    1
    27    13    15    1
    28    13    16    1
    29    16    17    1
    30    16    41    1
    31    16    42    1
    32    17    18    1
    33    18    19    1
    34    18    43    1
    35    18    44    1
    36    19    23    1
    37    19    20    2
    38    20    21    1
    39    20    45    1
    40    21    22    2
    41    21    46    1
    42    22    23    1
    43    23    24    1
    44    24    47    1
    45    24    48    1
    46    24    49    1
    47    25    29    1
    48    25    26    1
    49    25    50    1
    50    26    27    1
    51    26    51    1
    52    26    52    1
    53    27    28    1
    54    27    53    1
    55    27    54    1
    56    28    29    1
    57    28    55    1
    58    28    56    1
    59    29    57    1
    60    29    58    1
@<TRIPOS>SUBSTRUCTURE
     1 ZINC000579444893        1 TEMP              0 ****  ****    0 ROOT


##########                                Name:    ZINC000866717058
##########                DOCK_Rotatable_Bonds:                   7
##########                         Heavy_Atoms:                  25
##########                    Molecular_Weight:             380.388
##########                DOCK_Rotatable_Bonds:                   7
##########                       Formal_Charge:                0.04
##########                     HBond_Acceptors:                  10
##########                        HBond_Donors:                   1
##########                         Heavy_Atoms:                  25
##########                          Grid_Score:          -30.024891
##########                     Grid_vdw_energy:          -25.994726
##########                      Grid_es_energy:           -4.030165
##########           Internal_energy_repulsive:            8.990692

@<TRIPOS>MOLECULE
ZINC000866717058
 44 45 1 0 0
SMALL
USER_CHARGES


@<TRIPOS>ATOM
      1 C1         -8.1058   -1.7244   59.7658 C.3     1  ZINC000866717058   -0.1100
      2 C2         -8.0132   -0.2774   59.3552 C.ar    1  ZINC000866717058    0.2400
      3 N3         -7.6759    0.0295   58.1203 N.ar    1  ZINC000866717058   -0.5500
      4 C4         -7.5819    1.2867   57.7146 C.ar    1  ZINC000866717058    0.3500
      5 O5         -7.2313    1.5501   56.4325 O.3     1  ZINC000866717058   -0.2800
      6 C6         -8.2371    2.1128   55.5876 C.3     1  ZINC000866717058    0.0500
      7 H7         -9.1863    2.1426   56.1226 H       1  ZINC000866717058    0.1300
      8 C8         -7.8317    3.5331   55.1884 C.3     1  ZINC000866717058   -0.1700
      9 C9         -8.3869    1.2530   54.3309 C.3     1  ZINC000866717058    0.4600
     10 F10        -8.8138   -0.0295   54.6915 F       1  ZINC000866717058   -0.1700
     11 F11        -9.3298    1.8354   53.4770 F       1  ZINC000866717058   -0.1700
     12 F12        -7.1542    1.1670   53.6749 F       1  ZINC000866717058   -0.1700
     13 C13        -7.8383    2.3408   58.5856 C.ar    1  ZINC000866717058   -0.1900
     14 C14        -8.1954    2.0664   59.8900 C.ar    1  ZINC000866717058    0.0000
     15 C15        -8.2914    0.7244   60.2861 C.ar    1  ZINC000866717058   -0.2300
     16 C16        -8.6701    0.3770   61.6699 C.2     1  ZINC000866717058    0.5800
     17 O17        -9.8064    0.0232   61.9186 O.2     1  ZINC000866717058   -0.5200
     18 N18        -7.7562    0.4522   62.6578 N.am    1  ZINC000866717058   -0.7400
     19 C19        -8.1326    0.1091   64.0314 C.3     1  ZINC000866717058    0.1400
     20 C20        -8.3714    1.3920   64.8302 C.3     1  ZINC000866717058   -0.5700
     21 H21        -7.6355    2.1520   64.5677 H       1  ZINC000866717058    0.1500
     22 C22        -9.8118    1.9200   64.6057 C.3     1  ZINC000866717058   -0.1100
     23 C23       -10.1182    2.8735   65.7739 C.3     1  ZINC000866717058   -0.1200
     24 C24        -9.7026    2.1902   67.0919 C.3     1  ZINC000866717058   -0.5900
     25 S25        -8.3415    1.0521   66.6310 S.o2    1  ZINC000866717058    2.3700
     26 O26        -8.7511   -0.2891   66.8606 O.2     1  ZINC000866717058   -0.9200
     27 O27        -7.1225    1.5269   67.1857 O.2     1  ZINC000866717058   -0.9300
     28 H28        -9.1425   -2.0547   59.7014 H       1  ZINC000866717058    0.0900
     29 H29        -7.4894   -2.3306   59.1021 H       1  ZINC000866717058    0.0700
     30 H30        -7.7525   -1.8344   60.7911 H       1  ZINC000866717058    0.1100
     31 H31        -8.5989    3.9623   54.5438 H       1  ZINC000866717058    0.0900
     32 H32        -7.7250    4.1456   56.0836 H       1  ZINC000866717058    0.0900
     33 H33        -6.8827    3.5033   54.6532 H       1  ZINC000866717058    0.0800
     34 H34        -7.7585    3.3625   58.2449 H       1  ZINC000866717058    0.1600
     35 H35        -8.3997    2.8652   60.5876 H       1  ZINC000866717058    0.1500
     36 H36        -6.8494    0.7333   62.4591 H       1  ZINC000866717058    0.4000
     37 H37        -9.0451   -0.4869   64.0199 H       1  ZINC000866717058    0.1000
     38 H38        -7.3302   -0.4640   64.4957 H       1  ZINC000866717058    0.1000
     39 H39        -9.8689    2.4583   63.6596 H       1  ZINC000866717058    0.1100
     40 H40       -10.5181    1.0898   64.6065 H       1  ZINC000866717058    0.0900
     41 H41        -9.5567    3.7993   65.6483 H       1  ZINC000866717058    0.0900
     42 H42       -11.1853    3.0946   65.7964 H       1  ZINC000866717058    0.1000
     43 H43        -9.3467    2.9319   67.8070 H       1  ZINC000866717058    0.1400
     44 H44       -10.5406    1.6322   67.5096 H       1  ZINC000866717058    0.1400
@<TRIPOS>BOND
     1     1     2    1
     2     1    28    1
     3     1    29    1
     4     1    30    1
     5     2    15   ar
     6     2     3   ar
     7     3     4   ar
     8     4     5    1
     9     4    13   ar
    10     5     6    1
    11     6     7    1
    12     6     8    1
    13     6     9    1
    14     8    31    1
    15     8    32    1
    16     8    33    1
    17     9    10    1
    18     9    11    1
    19     9    12    1
    20    13    14   ar
    21    13    34    1
    22    14    15   ar
    23    14    35    1
    24    15    16    1
    25    16    17    2
    26    16    18   am
    27    18    19    1
    28    18    36    1
    29    19    20    1
    30    19    37    1
    31    19    38    1
    32    20    21    1
    33    20    25    1
    34    20    22    1
    35    22    23    1
    36    22    39    1
    37    22    40    1
    38    23    24    1
    39    23    41    1
    40    23    42    1
    41    24    25    1
    42    24    43    1
    43    24    44    1
    44    25    26    2
    45    25    27    2
@<TRIPOS>SUBSTRUCTURE
     1 ZINC000866717058        1 TEMP              0 ****  ****    0 ROOT


##########                                Name:    ZINC000077537368
##########                DOCK_Rotatable_Bonds:                   5
##########                         Heavy_Atoms:                  27
##########                    Molecular_Weight:             365.478
##########                DOCK_Rotatable_Bonds:                   5
##########                       Formal_Charge:          -0.0400007
##########                     HBond_Acceptors:                   6
##########                        HBond_Donors:                   0
##########                         Heavy_Atoms:                  27
##########                          Grid_Score:          -30.018003
##########                     Grid_vdw_energy:          -29.428322
##########                      Grid_es_energy:           -0.589681
##########           Internal_energy_repulsive:           12.322805

@<TRIPOS>MOLECULE
ZINC000077537368
 54 56 1 0 0
SMALL
USER_CHARGES


@<TRIPOS>ATOM
      1 C1         -9.8742   -1.2570   53.9938 C.3     1  ZINC000077537368    0.0800
      2 N2         -9.5240   -0.2401   54.9885 N.pl3   1  ZINC000077537368   -0.2600
      3 N3         -9.3357   -0.4622   56.2395 N.2     1  ZINC000077537368   -0.2700
      4 C4         -9.0361    0.6443   56.8707 C.2     1  ZINC000077537368    0.0400
      5 C5         -8.7480    0.7750   58.3441 C.3     1  ZINC000077537368    0.0200
      6 C6         -7.7680    1.9278   58.5718 C.3     1  ZINC000077537368   -0.1400
      7 C7        -10.0506    1.0571   59.0955 C.3     1  ZINC000077537368   -0.1400
      8 C8         -8.1327   -0.5270   58.8611 C.3     1  ZINC000077537368   -0.1400
      9 C9         -9.0301    1.6824   55.9364 C.2     1  ZINC000077537368   -0.2000
     10 C10        -9.3422    1.0881   54.7260 C.2     1  ZINC000077537368   -0.0400
     11 C11        -9.4628    1.7548   53.4196 C.2     1  ZINC000077537368    0.5900
     12 O12       -10.5346    2.2070   53.0643 O.2     1  ZINC000077537368   -0.5400
     13 N13        -8.3857    1.8643   52.6169 N.am    1  ZINC000077537368   -0.6000
     14 C14        -8.4828    2.5320   51.3101 C.3     1  ZINC000077537368    0.0800
     15 C15        -7.3693    3.5805   51.2153 C.3     1  ZINC000077537368    0.0400
     16 N16        -6.0753    2.9424   51.4921 N.3     1  ZINC000077537368   -0.5300
     17 C17        -4.9659    3.8725   51.2436 C.3     1  ZINC000077537368    0.0900
     18 C18        -3.7803    3.1094   50.7115 C.ar    1  ZINC000077537368   -0.0500
     19 C19        -2.4993    3.5792   50.9415 C.ar    1  ZINC000077537368   -0.1200
     20 C20        -1.4096    2.8859   50.4570 C.ar    1  ZINC000077537368   -0.0700
     21 C21        -1.6015    1.7073   49.7333 C.ar    1  ZINC000077537368   -0.0300
     22 C22        -0.4750    0.9822   49.2278 C.1     1  ZINC000077537368    0.2500
     23 N23         0.4188    0.4069   48.8267 N.1     1  ZINC000077537368   -0.4100
     24 C24        -2.8970    1.2387   49.5052 C.ar    1  ZINC000077537368   -0.0700
     25 C25        -3.9775    1.9392   50.0001 C.ar    1  ZINC000077537368   -0.1000
     26 C26        -6.0236    2.4152   52.8623 C.3     1  ZINC000077537368    0.0400
     27 C27        -7.0805    1.3244   53.0273 C.3     1  ZINC000077537368    0.1200
     28 H28        -8.9688   -1.6080   53.4988 H       1  ZINC000077537368    0.0800
     29 H29       -10.3659   -2.0948   54.4883 H       1  ZINC000077537368    0.1000
     30 H30       -10.5485   -0.8251   53.2544 H       1  ZINC000077537368    0.1100
     31 H31        -8.2064    2.8553   58.2035 H       1  ZINC000077537368    0.0600
     32 H32        -7.5597    2.0224   59.6375 H       1  ZINC000077537368    0.0600
     33 H33        -6.8401    1.7268   58.0366 H       1  ZINC000077537368    0.0600
     34 H34       -10.7487    0.2358   58.9332 H       1  ZINC000077537368    0.0600
     35 H35        -9.8423    1.1517   60.1612 H       1  ZINC000077537368    0.0600
     36 H36       -10.4890    1.9846   58.7271 H       1  ZINC000077537368    0.0600
     37 H37        -7.2047   -0.7279   58.3258 H       1  ZINC000077537368    0.0600
     38 H38        -7.9243   -0.4323   59.9268 H       1  ZINC000077537368    0.0600
     39 H39        -8.8308   -1.3482   58.6989 H       1  ZINC000077537368    0.0600
     40 H40        -8.8225    2.7264   56.1189 H       1  ZINC000077537368    0.1700
     41 H41        -8.3628    1.7975   50.5137 H       1  ZINC000077537368    0.0800
     42 H42        -9.4534    3.0196   51.2193 H       1  ZINC000077537368    0.1200
     43 H43        -7.3568    4.0081   50.2128 H       1  ZINC000077537368    0.0900
     44 H44        -7.5494    4.3694   51.9455 H       1  ZINC000077537368    0.0400
     45 H45        -5.2748    4.6196   50.5126 H       1  ZINC000077537368    0.0900
     46 H46        -4.6910    4.3674   52.1751 H       1  ZINC000077537368    0.0500
     47 H47        -2.3522    4.4910   51.5014 H       1  ZINC000077537368    0.1300
     48 H48        -0.4103    3.2541   50.6366 H       1  ZINC000077537368    0.1300
     49 H49        -3.0524    0.3278   48.9464 H       1  ZINC000077537368    0.1300
     50 H50        -4.9799    1.5777   49.8247 H       1  ZINC000077537368    0.1400
     51 H51        -5.0351    1.9978   53.0543 H       1  ZINC000077537368    0.1000
     52 H52        -6.2224    3.2204   53.5696 H       1  ZINC000077537368    0.0400
     53 H53        -7.1236    1.0111   54.0704 H       1  ZINC000077537368    0.1000
     54 H54        -6.8287    0.4721   52.3962 H       1  ZINC000077537368    0.0800
@<TRIPOS>BOND
     1     1     2    1
     2     1    28    1
     3     1    29    1
     4     1    30    1
     5     2    10    1
     6     2     3    1
     7     3     4    2
     8     4     5    1
     9     4     9    1
    10     5     6    1
    11     5     7    1
    12     5     8    1
    13     6    31    1
    14     6    32    1
    15     6    33    1
    16     7    34    1
    17     7    35    1
    18     7    36    1
    19     8    37    1
    20     8    38    1
    21     8    39    1
    22     9    10    2
    23     9    40    1
    24    10    11    1
    25    11    12    2
    26    11    13   am
    27    13    27    1
    28    13    14    1
    29    14    15    1
    30    14    41    1
    31    14    42    1
    32    15    16    1
    33    15    43    1
    34    15    44    1
    35    16    17    1
    36    16    26    1
    37    17    18    1
    38    17    45    1
    39    17    46    1
    40    18    25   ar
    41    18    19   ar
    42    19    20   ar
    43    19    47    1
    44    20    21   ar
    45    20    48    1
    46    21    22    1
    47    21    24   ar
    48    22    23    3
    49    24    25   ar
    50    24    49    1
    51    25    50    1
    52    26    27    1
    53    26    51    1
    54    26    52    1
    55    27    53    1
    56    27    54    1
@<TRIPOS>SUBSTRUCTURE
     1 ZINC000077537368        1 TEMP              0 ****  ****    0 ROOT


##########                                Name:    ZINC000496437542
##########                DOCK_Rotatable_Bonds:                   7
##########                         Heavy_Atoms:                  24
##########                    Molecular_Weight:             338.447
##########                DOCK_Rotatable_Bonds:                   7
##########                       Formal_Charge:           0.0400002
##########                     HBond_Acceptors:                   6
##########                        HBond_Donors:                   1
##########                         Heavy_Atoms:                  24
##########                          Grid_Score:          -29.997002
##########                     Grid_vdw_energy:          -28.902054
##########                      Grid_es_energy:           -1.094949
##########           Internal_energy_repulsive:           17.951031

@<TRIPOS>MOLECULE
ZINC000496437542
 54 55 1 0 0
SMALL
USER_CHARGES


@<TRIPOS>ATOM
      1 C1        -10.4803    0.8408   61.7806 C.3     1  ZINC000496437542   -0.1800
      2 C2         -9.1134    1.4352   62.1259 C.3     1  ZINC000496437542    0.1400
      3 C3         -9.2170    2.9611   62.1694 C.3     1  ZINC000496437542   -0.1800
      4 C4         -8.6618    0.9155   63.4922 C.3     1  ZINC000496437542   -0.1400
      5 O5         -8.1465    1.0444   61.1156 O.3     1  ZINC000496437542   -0.3600
      6 C6         -8.5865    0.9682   59.8455 C.2     1  ZINC000496437542    0.6600
      7 O7         -8.9990    1.9642   59.2847 O.2     1  ZINC000496437542   -0.5600
      8 N8         -8.5695   -0.2125   59.1960 N.am    1  ZINC000496437542   -0.6000
      9 C9         -8.0747   -1.4320   59.8543 C.3     1  ZINC000496437542    0.0800
     10 C10        -9.1219   -2.5371   59.6753 C.3     1  ZINC000496437542    0.0500
     11 O11        -9.4515   -2.6531   58.2891 O.3     1  ZINC000496437542   -0.3700
     12 C12       -10.0457   -1.4797   57.7286 C.3     1  ZINC000496437542    0.0700
     13 H13       -10.9450   -1.2238   58.2889 H       1  ZINC000496437542    0.0700
     14 C14       -10.4119   -1.7411   56.2662 C.3     1  ZINC000496437542    0.1300
     15 N15        -9.8213   -0.7002   55.4213 N.am    1  ZINC000496437542   -0.7200
     16 C16        -9.9109   -0.7899   54.0795 C.2     1  ZINC000496437542    0.5600
     17 O17       -10.4833   -1.7344   53.5702 O.2     1  ZINC000496437542   -0.5400
     18 C18        -9.3163    0.2543   53.2311 C.2     1  ZINC000496437542   -0.1900
     19 C19        -9.0330    1.4322   53.7438 C.2     1  ZINC000496437542   -0.0600
     20 C20        -8.4212    2.5144   52.8795 C.3     1  ZINC000496437542   -0.1000
     21 C21        -6.9714    2.1322   52.5733 C.3     1  ZINC000496437542   -0.1100
     22 C22        -6.8982    1.2220   51.3609 C.3     1  ZINC000496437542   -0.1200
     23 C23        -7.5184   -0.1455   51.5820 C.3     1  ZINC000496437542   -0.1200
     24 C24        -9.0274   -0.0334   51.7729 C.3     1  ZINC000496437542   -0.0800
     25 C25        -9.0510   -0.3217   57.8098 C.3     1  ZINC000496437542    0.1000
     26 H26       -10.8021    1.2111   60.8072 H       1  ZINC000496437542    0.0900
     27 H27       -10.4064   -0.2462   61.7496 H       1  ZINC000496437542    0.0600
     28 H28       -11.2062    1.1342   62.5390 H       1  ZINC000496437542    0.0700
     29 H29        -9.9429    3.2545   62.9278 H       1  ZINC000496437542    0.0700
     30 H30        -8.2433    3.3846   62.4155 H       1  ZINC000496437542    0.0600
     31 H31        -9.5389    3.3313   61.1960 H       1  ZINC000496437542    0.0900
     32 H32        -8.5879   -0.1715   63.4612 H       1  ZINC000496437542    0.0700
     33 H33        -7.6880    1.3390   63.7382 H       1  ZINC000496437542    0.0700
     34 H34        -9.3876    1.2089   64.2506 H       1  ZINC000496437542    0.0800
     35 H35        -7.1342   -1.7400   59.3974 H       1  ZINC000496437542    0.0800
     36 H36        -7.9217   -1.2397   60.9163 H       1  ZINC000496437542    0.1000
     37 H37        -8.7173   -3.4837   60.0337 H       1  ZINC000496437542    0.1100
     38 H38       -10.0178   -2.2851   60.2427 H       1  ZINC000496437542    0.0600
     39 H39       -10.0280   -2.7155   55.9641 H       1  ZINC000496437542    0.0900
     40 H40       -11.4961   -1.7274   56.1551 H       1  ZINC000496437542    0.0800
     41 H41        -9.3658    0.0537   55.8276 H       1  ZINC000496437542    0.4000
     42 H42        -9.2380    1.6283   54.7860 H       1  ZINC000496437542    0.1300
     43 H43        -8.9818    2.5997   51.9485 H       1  ZINC000496437542    0.0800
     44 H44        -8.4445    3.4651   53.4121 H       1  ZINC000496437542    0.0800
     45 H45        -6.3957    3.0369   52.3778 H       1  ZINC000496437542    0.0700
     46 H46        -6.5467    1.6168   53.4348 H       1  ZINC000496437542    0.0700
     47 H47        -7.4118    1.7067   50.5306 H       1  ZINC000496437542    0.0600
     48 H48        -5.8513    1.0892   51.0883 H       1  ZINC000496437542    0.0600
     49 H49        -7.3116   -0.7771   50.7180 H       1  ZINC000496437542    0.0700
     50 H50        -7.0789   -0.5992   52.4703 H       1  ZINC000496437542    0.0600
     51 H51        -9.5035   -0.9705   51.4841 H       1  ZINC000496437542    0.0700
     52 H52        -9.4144    0.7809   51.1602 H       1  ZINC000496437542    0.0800
     53 H53        -9.5427    0.6058   57.5162 H       1  ZINC000496437542    0.1100
     54 H54        -8.2069   -0.5157   57.1480 H       1  ZINC000496437542    0.0900
@<TRIPOS>BOND
     1     1     2    1
     2     1    26    1
     3     1    27    1
     4     1    28    1
     5     2     3    1
     6     2     4    1
     7     2     5    1
     8     3    29    1
     9     3    30    1
    10     3    31    1
    11     4    32    1
    12     4    33    1
    13     4    34    1
    14     5     6    1
    15     6     7    2
    16     6     8   am
    17     8    25    1
    18     8     9    1
    19     9    10    1
    20     9    35    1
    21     9    36    1
    22    10    11    1
    23    10    37    1
    24    10    38    1
    25    11    12    1
    26    12    13    1
    27    12    14    1
    28    12    25    1
    29    14    15    1
    30    14    39    1
    31    14    40    1
    32    15    16   am
    33    15    41    1
    34    16    17    2
    35    16    18    1
    36    18    24    1
    37    18    19    2
    38    19    20    1
    39    19    42    1
    40    20    21    1
    41    20    43    1
    42    20    44    1
    43    21    22    1
    44    21    45    1
    45    21    46    1
    46    22    23    1
    47    22    47    1
    48    22    48    1
    49    23    24    1
    50    23    49    1
    51    23    50    1
    52    24    51    1
    53    24    52    1
    54    25    53    1
    55    25    54    1
@<TRIPOS>SUBSTRUCTURE
     1 ZINC000496437542        1 TEMP              0 ****  ****    0 ROOT


##########                                Name:    ZINC000942890482
##########                DOCK_Rotatable_Bonds:                   8
##########                         Heavy_Atoms:                  25
##########                    Molecular_Weight:             346.445
##########                DOCK_Rotatable_Bonds:                   8
##########                       Formal_Charge:          -0.0100004
##########                     HBond_Acceptors:                   5
##########                        HBond_Donors:                   0
##########                         Heavy_Atoms:                  25
##########                          Grid_Score:          -29.986837
##########                     Grid_vdw_energy:          -29.422491
##########                      Grid_es_energy:           -0.564347
##########           Internal_energy_repulsive:           27.541674

@<TRIPOS>MOLECULE
ZINC000942890482
 52 54 1 0 0
SMALL
USER_CHARGES


@<TRIPOS>ATOM
      1 C1        -13.0406    0.5734   54.9451 C.3     1  ZINC000942890482   -0.1700
      2 C2        -11.9022    1.3739   55.5808 C.3     1  ZINC000942890482    0.1000
      3 N3        -10.9436    0.4538   56.1980 N.am    1  ZINC000942890482   -0.6000
      4 C4        -11.1942   -0.0623   57.4176 C.2     1  ZINC000942890482    0.5700
      5 O5        -12.2157    0.2358   58.0054 O.2     1  ZINC000942890482   -0.5100
      6 C6        -10.2277   -0.9900   58.0399 C.ar    1  ZINC000942890482   -0.1400
      7 C7         -9.0441   -0.4999   58.5955 C.ar    1  ZINC000942890482   -0.0600
      8 C8         -8.1459   -1.3700   59.1756 C.ar    1  ZINC000942890482   -0.1600
      9 C9         -8.4158   -2.7294   59.2078 C.ar    1  ZINC000942890482    0.1300
     10 F10        -7.5321   -3.5779   59.7774 F       1  ZINC000942890482   -0.1300
     11 C11        -9.5900   -3.2214   58.6578 C.ar    1  ZINC000942890482   -0.1600
     12 C12       -10.4971   -2.3599   58.0798 C.ar    1  ZINC000942890482   -0.0100
     13 C13       -11.7727   -2.8959   57.4827 C.3     1  ZINC000942890482   -0.1200
     14 C14        -9.7126    0.0948   55.4895 C.3     1  ZINC000942890482    0.1400
     15 H15        -9.2630   -0.7998   55.9206 H       1  ZINC000942890482    0.1100
     16 C16        -8.7073    1.2766   55.4873 C.3     1  ZINC000942890482   -0.1500
     17 C17        -7.8704    1.0160   54.2171 C.3     1  ZINC000942890482    0.1100
     18 N18        -8.6771    0.1657   53.3296 N.am    1  ZINC000942890482   -0.6200
     19 C19        -8.2913   -0.3025   52.1261 C.2     1  ZINC000942890482    0.5300
     20 O20        -9.0429   -0.9983   51.4766 O.2     1  ZINC000942890482   -0.5400
     21 C21        -6.9257    0.0385   51.5875 C.3     1  ZINC000942890482   -0.1300
     22 C22        -7.0664    1.0344   50.4345 C.3     1  ZINC000942890482   -0.0700
     23 C23        -8.0323    2.1498   50.8390 C.3     1  ZINC000942890482   -0.1600
     24 C24        -7.4485    3.5486   51.0474 C.3     1  ZINC000942890482   -0.1800
     25 C25        -8.3059    3.2532   49.8151 C.3     1  ZINC000942890482   -0.1800
     26 C26        -9.9779   -0.0920   53.9748 C.3     1  ZINC000942890482    0.0900
     27 H27       -12.6352   -0.0933   54.1841 H       1  ZINC000942890482    0.0600
     28 H28       -13.5438   -0.0148   55.7126 H       1  ZINC000942890482    0.0600
     29 H29       -13.7538    1.2579   54.4860 H       1  ZINC000942890482    0.0700
     30 H30       -11.3990    1.9620   54.8134 H       1  ZINC000942890482    0.0900
     31 H31       -12.3076    2.0405   56.3419 H       1  ZINC000942890482    0.0900
     32 H32        -8.8327    0.5590   58.5707 H       1  ZINC000942890482    0.1400
     33 H33        -7.2299   -0.9920   59.6053 H       1  ZINC000942890482    0.1400
     34 H34        -9.7954   -4.2814   58.6856 H       1  ZINC000942890482    0.1400
     35 H35       -12.5308   -2.9810   58.2613 H       1  ZINC000942890482    0.0900
     36 H36       -12.1240   -2.2165   56.7062 H       1  ZINC000942890482    0.0700
     37 H37       -11.5859   -3.8783   57.0487 H       1  ZINC000942890482    0.0700
     38 H38        -9.2321    2.2292   55.4146 H       1  ZINC000942890482    0.1000
     39 H39        -8.0774    1.2489   56.3764 H       1  ZINC000942890482    0.0900
     40 H40        -7.6450    1.9603   53.7215 H       1  ZINC000942890482    0.0700
     41 H41        -6.9453    0.5036   54.4813 H       1  ZINC000942890482    0.0700
     42 H42        -6.3233    0.4827   52.3798 H       1  ZINC000942890482    0.0900
     43 H43        -6.4404   -0.8685   51.2271 H       1  ZINC000942890482    0.0900
     44 H44        -6.0913    1.4638   50.2043 H       1  ZINC000942890482    0.0700
     45 H45        -7.4535    0.5197   49.5551 H       1  ZINC000942890482    0.0700
     46 H46        -8.8565    1.8467   51.4848 H       1  ZINC000942890482    0.1000
     47 H47        -7.8886    4.1661   51.8304 H       1  ZINC000942890482    0.0900
     48 H48        -6.3764    3.6742   50.8962 H       1  ZINC000942890482    0.0900
     49 H49        -7.7978    3.1845   48.8532 H       1  ZINC000942890482    0.0900
     50 H50        -9.3100    3.6763   49.7874 H       1  ZINC000942890482    0.0900
     51 H51       -10.3084   -1.1101   53.7691 H       1  ZINC000942890482    0.0800
     52 H52       -10.7216    0.6262   53.6294 H       1  ZINC000942890482    0.0900
@<TRIPOS>BOND
     1     1     2    1
     2     1    27    1
     3     1    28    1
     4     1    29    1
     5     2     3    1
     6     2    30    1
     7     2    31    1
     8     3     4   am
     9     3    14    1
    10     4     5    2
    11     4     6    1
    12     6    12   ar
    13     6     7   ar
    14     7     8   ar
    15     7    32    1
    16     8     9   ar
    17     8    33    1
    18     9    10    1
    19     9    11   ar
    20    11    12   ar
    21    11    34    1
    22    12    13    1
    23    13    35    1
    24    13    36    1
    25    13    37    1
    26    14    15    1
    27    14    26    1
    28    14    16    1
    29    16    17    1
    30    16    38    1
    31    16    39    1
    32    17    18    1
    33    17    40    1
    34    17    41    1
    35    18    19   am
    36    18    26    1
    37    19    20    2
    38    19    21    1
    39    21    22    1
    40    21    42    1
    41    21    43    1
    42    22    23    1
    43    22    44    1
    44    22    45    1
    45    23    25    1
    46    23    24    1
    47    23    46    1
    48    24    25    1
    49    24    47    1
    50    24    48    1
    51    25    49    1
    52    25    50    1
    53    26    51    1
    54    26    52    1
@<TRIPOS>SUBSTRUCTURE
     1 ZINC000942890482        1 TEMP              0 ****  ****    0 ROOT


##########                                Name:    ZINC001312809190
##########                DOCK_Rotatable_Bonds:                   6
##########                         Heavy_Atoms:                  29
##########                    Molecular_Weight:             395.501
##########                DOCK_Rotatable_Bonds:                   6
##########                       Formal_Charge:           0.0199995
##########                     HBond_Acceptors:                   6
##########                        HBond_Donors:                   1
##########                         Heavy_Atoms:                  29
##########                          Grid_Score:          -29.980097
##########                     Grid_vdw_energy:          -29.667986
##########                      Grid_es_energy:           -0.312111
##########           Internal_energy_repulsive:           32.997768

@<TRIPOS>MOLECULE
ZINC001312809190
 58 61 1 0 0
SMALL
USER_CHARGES


@<TRIPOS>ATOM
      1 C1         -4.9333    1.3216   50.2961 C.3     1  ZINC001312809190    0.0300
      2 O2         -5.9057    0.3959   50.7858 O.3     1  ZINC001312809190   -0.3200
      3 C3         -7.0390    0.9186   51.3235 C.ar    1  ZINC001312809190    0.1300
      4 C4         -7.1699    2.2918   51.4689 C.ar    1  ZINC001312809190   -0.2100
      5 C5         -8.3234    2.8207   52.0154 C.ar    1  ZINC001312809190   -0.0800
      6 C6         -9.3464    1.9826   52.4178 C.ar    1  ZINC001312809190   -0.1300
      7 C7         -9.2182    0.6131   52.2744 C.ar    1  ZINC001312809190   -0.0500
      8 C8        -10.3352   -0.2978   52.7145 C.3     1  ZINC001312809190    0.1200
      9 H9        -10.4117   -1.1383   52.0248 H       1  ZINC001312809190    0.0500
     10 C10       -11.6537    0.4784   52.7210 C.3     1  ZINC001312809190   -0.1400
     11 N11       -10.0549   -0.7982   54.0670 N.3     1  ZINC001312809190   -0.5300
     12 C12       -10.9076   -1.9501   54.3892 C.3     1  ZINC001312809190    0.0300
     13 C13       -10.4630   -2.5524   55.7263 C.3     1  ZINC001312809190    0.1400
     14 N14       -10.4508   -1.4853   56.7383 N.am    1  ZINC001312809190   -0.6300
     15 C15       -11.0835   -1.6432   57.9178 C.2     1  ZINC001312809190    0.7100
     16 O16       -11.6748   -2.6784   58.1567 O.2     1  ZINC001312809190   -0.5800
     17 N17       -11.0608   -0.6536   58.8325 N.am    1  ZINC001312809190   -0.7300
     18 C18       -11.7487   -0.8252   60.1145 C.3     1  ZINC001312809190    0.1800
     19 H19       -11.9823   -1.8751   60.2915 H       1  ZINC001312809190    0.1200
     20 C20       -10.9250   -0.2539   61.2523 C.ar    1  ZINC001312809190   -0.1900
     21 C21        -9.5923   -0.3710   61.5785 C.ar    1  ZINC001312809190   -0.0500
     22 C22        -9.0940    0.2785   62.6943 C.ar    1  ZINC001312809190   -0.1500
     23 C23        -9.9382    1.0432   63.4777 C.ar    1  ZINC001312809190   -0.0800
     24 C24       -11.2746    1.1589   63.1546 C.ar    1  ZINC001312809190   -0.1400
     25 C25       -11.7847    0.5060   62.0356 C.ar    1  ZINC001312809190    0.1100
     26 O26       -13.0560    0.4689   61.5502 O.3     1  ZINC001312809190   -0.2900
     27 C27       -13.0273    0.0436   60.1765 C.3     1  ZINC001312809190    0.0800
     28 H28       -12.9440    0.9009   59.5085 H       1  ZINC001312809190    0.0900
     29 C29       -14.2686   -0.7848   59.8395 C.3     1  ZINC001312809190   -0.1500
     30 C30        -9.7291   -0.2414   56.4293 C.3     1  ZINC001312809190    0.1200
     31 C31       -10.2026    0.2698   55.0646 C.3     1  ZINC001312809190    0.0400
     32 C32        -8.0696    0.0798   51.7229 C.ar    1  ZINC001312809190   -0.1500
     33 H33        -4.0805    0.7742   49.8946 H       1  ZINC001312809190    0.1000
     34 H34        -5.3766    1.9317   49.5090 H       1  ZINC001312809190    0.0600
     35 H35        -4.6012    1.9648   51.1110 H       1  ZINC001312809190    0.0600
     36 H36        -6.3706    2.9471   51.1554 H       1  ZINC001312809190    0.1300
     37 H37        -8.4257    3.8899   52.1287 H       1  ZINC001312809190    0.1300
     38 H38       -10.2471    2.3978   52.8450 H       1  ZINC001312809190    0.1300
     39 H39       -11.5771    1.3190   53.4108 H       1  ZINC001312809190    0.0700
     40 H40       -11.8616    0.8498   51.7175 H       1  ZINC001312809190    0.0600
     41 H41       -12.4616   -0.1805   53.0393 H       1  ZINC001312809190    0.0600
     42 H42       -11.9454   -1.6249   54.4640 H       1  ZINC001312809190    0.0400
     43 H43       -10.8170   -2.7008   53.6041 H       1  ZINC001312809190    0.1000
     44 H44       -11.1614   -3.3336   56.0263 H       1  ZINC001312809190    0.1000
     45 H45        -9.4621   -2.9718   55.6241 H       1  ZINC001312809190    0.0700
     46 H46       -10.5890    0.1723   58.6420 H       1  ZINC001312809190    0.4000
     47 H47        -8.9364   -0.9697   60.9640 H       1  ZINC001312809190    0.1200
     48 H48        -8.0492    0.1881   62.9524 H       1  ZINC001312809190    0.1300
     49 H49        -9.5498    1.5523   64.3472 H       1  ZINC001312809190    0.1300
     50 H50       -11.9274    1.7579   63.7722 H       1  ZINC001312809190    0.1300
     51 H51       -15.1612   -0.1747   59.9781 H       1  ZINC001312809190    0.0800
     52 H52       -14.2130   -1.1174   58.8030 H       1  ZINC001312809190    0.0800
     53 H53       -14.3160   -1.6526   60.4975 H       1  ZINC001312809190    0.0700
     54 H54        -9.9424    0.5052   57.1942 H       1  ZINC001312809190    0.0800
     55 H55        -8.6577   -0.4387   56.3948 H       1  ZINC001312809190    0.0800
     56 H56        -9.6007    1.1292   54.7693 H       1  ZINC001312809190    0.0900
     57 H57       -11.2502    0.5641   55.1299 H       1  ZINC001312809190    0.0400
     58 H58        -7.9701   -0.9898   51.6109 H       1  ZINC001312809190    0.1300
@<TRIPOS>BOND
     1     1     2    1
     2     1    33    1
     3     1    34    1
     4     1    35    1
     5     2     3    1
     6     3    32   ar
     7     3     4   ar
     8     4     5   ar
     9     4    36    1
    10     5     6   ar
    11     5    37    1
    12     6     7   ar
    13     6    38    1
    14     7     8    1
    15     7    32   ar
    16     8     9    1
    17     8    10    1
    18     8    11    1
    19    10    39    1
    20    10    40    1
    21    10    41    1
    22    11    31    1
    23    11    12    1
    24    12    13    1
    25    12    42    1
    26    12    43    1
    27    13    14    1
    28    13    44    1
    29    13    45    1
    30    14    15   am
    31    14    30    1
    32    15    16    2
    33    15    17   am
    34    17    18    1
    35    17    46    1
    36    18    19    1
    37    18    27    1
    38    18    20    1
    39    20    25   ar
    40    20    21   ar
    41    21    22   ar
    42    21    47    1
    43    22    23   ar
    44    22    48    1
    45    23    24   ar
    46    23    49    1
    47    24    25   ar
    48    24    50    1
    49    25    26    1
    50    26    27    1
    51    27    28    1
    52    27    29    1
    53    29    51    1
    54    29    52    1
    55    29    53    1
    56    30    31    1
    57    30    54    1
    58    30    55    1
    59    31    56    1
    60    31    57    1
    61    32    58    1
@<TRIPOS>SUBSTRUCTURE
     1 ZINC001312809190        1 TEMP              0 ****  ****    0 ROOT


##########                                Name:    ZINC000007167963
##########                DOCK_Rotatable_Bonds:                   8
##########                         Heavy_Atoms:                  25
##########                    Molecular_Weight:             378.433
##########                DOCK_Rotatable_Bonds:                   8
##########                       Formal_Charge:        -1.01328e-06
##########                     HBond_Acceptors:                  10
##########                        HBond_Donors:                   3
##########                         Heavy_Atoms:                  25
##########                          Grid_Score:          -29.976667
##########                     Grid_vdw_energy:          -29.182100
##########                      Grid_es_energy:           -0.794568
##########           Internal_energy_repulsive:            7.041541

@<TRIPOS>MOLECULE
ZINC000007167963
 39 41 1 0 0
SMALL
USER_CHARGES


@<TRIPOS>ATOM
      1 C1        -10.6574    1.8385   64.4064 C.3     1  ZINC000007167963   -0.0800
      2 C2         -9.3465    1.1083   64.5470 C.2     1  ZINC000007167963    0.0900
      3 C3         -8.7169    0.4068   63.5652 C.2     1  ZINC000007167963   -0.1500
      4 C4         -9.1742    0.2128   62.1733 C.2     1  ZINC000007167963    0.2600
      5 N5        -10.3260    0.5911   61.6749 N.2     1  ZINC000007167963   -0.2700
      6 N6        -10.3841    0.2603   60.4330 N.2     1  ZINC000007167963   -0.2800
      7 C7         -9.2714   -0.3425   60.0887 C.2     1  ZINC000007167963    0.1200
      8 S8         -8.8803   -0.9775   58.4923 S.3     1  ZINC000007167963    0.1500
      9 C9        -10.4251   -0.6131   57.6221 C.3     1  ZINC000007167963   -0.1200
     10 H10       -10.8396    0.3237   57.9944 H       1  ZINC000007167963    0.1400
     11 C11       -10.1483   -0.4881   56.1225 C.3     1  ZINC000007167963   -0.1500
     12 C12       -11.4106   -1.7281   57.8598 C.2     1  ZINC000007167963    0.5300
     13 O13       -11.0504   -2.7498   58.4051 O.2     1  ZINC000007167963   -0.4900
     14 N14       -12.6923   -1.5899   57.4663 N.am    1  ZINC000007167963   -0.6100
     15 C15       -13.5994   -2.6152   57.6866 C.2     1  ZINC000007167963    0.0800
     16 C16       -14.4424   -2.6918   58.7648 C.2     1  ZINC000007167963   -0.2400
     17 C17       -14.4892   -1.6865   59.8311 C.2     1  ZINC000007167963    0.5900
     18 N18       -13.5943   -1.7297   60.8379 N.am    1  ZINC000007167963   -0.8400
     19 O19       -15.3363   -0.8129   59.8070 O.2     1  ZINC000007167963   -0.5600
     20 C20       -15.2815   -3.8697   58.7380 C.2     1  ZINC000007167963   -0.0900
     21 C21       -15.0681   -4.6377   57.6790 C.2     1  ZINC000007167963   -0.2800
     22 S22       -13.8245   -3.9495   56.6502 S.3     1  ZINC000007167963    0.3000
     23 O23        -8.4797   -0.3819   61.1784 O.3     1  ZINC000007167963   -0.2000
     24 C24        -7.4881   -0.1167   64.1762 C.2     1  ZINC000007167963   -0.1800
     25 C25        -7.4947    0.3130   65.4486 C.2     1  ZINC000007167963   -0.0300
     26 O26        -8.5997    1.0444   65.6585 O.3     1  ZINC000007167963   -0.1700
     27 H27       -10.9125    2.3127   65.3541 H       1  ZINC000007167963    0.0800
     28 H28       -10.5679    2.5999   63.6316 H       1  ZINC000007167963    0.1000
     29 H29       -11.4398    1.1309   64.1320 H       1  ZINC000007167963    0.1000
     30 H30        -9.4355    0.3184   55.9506 H       1  ZINC000007167963    0.0900
     31 H31        -9.7338   -1.4249   55.7502 H       1  ZINC000007167963    0.0800
     32 H32       -11.0785   -0.2686   55.5985 H       1  ZINC000007167963    0.0800
     33 H33       -12.9800   -0.7733   57.0291 H       1  ZINC000007167963    0.4400
     34 H34       -13.6261   -1.0652   61.5439 H       1  ZINC000007167963    0.4000
     35 H35       -12.9184   -2.4252   60.8566 H       1  ZINC000007167963    0.4100
     36 H36       -16.0076   -4.1003   59.5034 H       1  ZINC000007167963    0.1500
     37 H37       -15.5916   -5.5602   57.4751 H       1  ZINC000007167963    0.1700
     38 H38        -6.7333   -0.7243   63.6993 H       1  ZINC000007167963    0.1600
     39 H39        -6.7309    0.1064   66.1836 H       1  ZINC000007167963    0.2200
@<TRIPOS>BOND
     1     1     2    1
     2     1    27    1
     3     1    28    1
     4     1    29    1
     5     2    26    1
     6     2     3    2
     7     3     4    1
     8     3    24    1
     9     4    23    1
    10     4     5    2
    11     5     6    1
    12     6     7    2
    13     7     8    1
    14     7    23    1
    15     8     9    1
    16     9    10    1
    17     9    11    1
    18     9    12    1
    19    11    30    1
    20    11    31    1
    21    11    32    1
    22    12    13    2
    23    12    14   am
    24    14    15    1
    25    14    33    1
    26    15    22    1
    27    15    16    2
    28    16    17    1
    29    16    20    1
    30    17    18   am
    31    17    19    2
    32    18    34    1
    33    18    35    1
    34    20    21    2
    35    20    36    1
    36    21    22    1
    37    21    37    1
    38    24    25    2
    39    24    38    1
    40    25    26    1
    41    25    39    1
@<TRIPOS>SUBSTRUCTURE
     1 ZINC000007167963        1 TEMP              0 ****  ****    0 ROOT


##########                                Name:    ZINC000618094467
##########                DOCK_Rotatable_Bonds:                   5
##########                         Heavy_Atoms:                  27
##########                    Molecular_Weight:             370.492
##########                DOCK_Rotatable_Bonds:                   5
##########                       Formal_Charge:                0.03
##########                     HBond_Acceptors:                   5
##########                        HBond_Donors:                   0
##########                         Heavy_Atoms:                  27
##########                          Grid_Score:          -29.964056
##########                     Grid_vdw_energy:          -28.392813
##########                      Grid_es_energy:           -1.571244
##########           Internal_energy_repulsive:           86.165840

@<TRIPOS>MOLECULE
ZINC000618094467
 57 59 1 0 0
SMALL
USER_CHARGES


@<TRIPOS>ATOM
      1 C1        -10.4405    0.0430   60.4642 C.3     1  ZINC000618094467   -0.1500
      2 C2         -9.0822    0.2162   59.7817 C.3     1  ZINC000618094467   -0.1000
      3 C3         -8.7112   -1.0745   59.0488 C.3     1  ZINC000618094467   -0.1100
      4 H4         -7.7768   -0.9289   58.5067 H       1  ZINC000618094467    0.1000
      5 C5         -8.5408   -2.2065   60.0640 C.3     1  ZINC000618094467   -0.1500
      6 C6         -9.8055   -1.4324   58.0765 C.2     1  ZINC000618094467    0.5200
      7 O7        -10.5375   -2.3717   58.3062 O.2     1  ZINC000618094467   -0.5000
      8 N8         -9.9710   -0.7086   56.9516 N.am    1  ZINC000618094467   -0.6100
      9 C9         -9.1027    0.4331   56.6449 C.3     1  ZINC000618094467    0.1400
     10 C10        -8.6887    0.3813   55.1957 C.ar    1  ZINC000618094467   -0.1000
     11 C11        -7.6768    1.2357   54.7803 C.ar    1  ZINC000618094467   -0.1100
     12 C12        -7.2613    1.2418   53.4644 C.ar    1  ZINC000618094467   -0.1200
     13 C13        -7.8585    0.3912   52.5532 C.ar    1  ZINC000618094467   -0.1100
     14 C14        -8.8615   -0.4614   52.9658 C.ar    1  ZINC000618094467   -0.1200
     15 C15        -9.2777   -0.4740   54.2913 C.ar    1  ZINC000618094467   -0.0600
     16 C16       -10.3583   -1.4504   54.6746 C.3     1  ZINC000618094467   -0.0800
     17 C17       -11.0262   -1.0361   55.9787 C.3     1  ZINC000618094467    0.1200
     18 H18       -11.6512   -0.1590   55.8105 H       1  ZINC000618094467    0.1000
     19 C19       -11.8696   -2.1700   56.5023 C.2     1  ZINC000618094467    0.5500
     20 O20       -11.6529   -3.3059   56.1367 O.2     1  ZINC000618094467   -0.5200
     21 N21       -12.8647   -1.9218   57.3767 N.am    1  ZINC000618094467   -0.6100
     22 C22       -13.1383   -0.5488   57.8204 C.3     1  ZINC000618094467    0.1200
     23 C23       -14.5943   -0.2022   57.4842 C.3     1  ZINC000618094467   -0.1600
     24 H24       -14.8714    0.7319   57.9729 H       1  ZINC000618094467    0.1100
     25 C25       -14.7528   -0.0577   55.9693 C.3     1  ZINC000618094467   -0.1400
     26 C26       -15.4802   -1.3216   57.9854 C.2     1  ZINC000618094467    0.3700
     27 O27       -16.4220   -1.0900   58.7049 O.2     1  ZINC000618094467   -0.4400
     28 C28       -15.1580   -2.7381   57.5627 C.3     1  ZINC000618094467   -0.1600
     29 H29       -15.3179   -2.8464   56.4899 H       1  ZINC000618094467    0.1100
     30 C30       -16.0568   -3.7184   58.3189 C.3     1  ZINC000618094467   -0.1400
     31 C31       -13.6918   -3.0204   57.8923 C.3     1  ZINC000618094467    0.1400
     32 H32       -10.3857   -0.7780   61.1792 H       1  ZINC000618094467    0.0500
     33 H33       -10.7047    0.9626   60.9863 H       1  ZINC000618094467    0.0600
     34 H34       -11.1987   -0.1792   59.7132 H       1  ZINC000618094467    0.0600
     35 H35        -9.1369    1.0372   59.0667 H       1  ZINC000618094467    0.0700
     36 H36        -8.3240    0.4384   60.5326 H       1  ZINC000618094467    0.0700
     37 H37        -9.4251   -2.2614   60.6988 H       1  ZINC000618094467    0.0700
     38 H38        -8.4131   -3.1516   59.5361 H       1  ZINC000618094467    0.0700
     39 H39        -7.6626   -2.0129   60.6799 H       1  ZINC000618094467    0.0700
     40 H40        -9.6426    1.3608   56.8348 H       1  ZINC000618094467    0.0900
     41 H41        -8.2156    0.3945   57.2772 H       1  ZINC000618094467    0.1100
     42 H42        -7.2114    1.9013   55.4923 H       1  ZINC000618094467    0.1300
     43 H43        -6.4729    1.9085   53.1477 H       1  ZINC000618094467    0.1300
     44 H44        -7.5410    0.3941   51.5210 H       1  ZINC000618094467    0.1200
     45 H45        -9.3275   -1.1247   52.2521 H       1  ZINC000618094467    0.1200
     46 H46       -11.1065   -1.4862   53.8826 H       1  ZINC000618094467    0.0900
     47 H47        -9.9196   -2.4407   54.7973 H       1  ZINC000618094467    0.1000
     48 H48       -12.9843   -0.4752   58.8969 H       1  ZINC000618094467    0.0700
     49 H49       -12.4701    0.1416   57.3056 H       1  ZINC000618094467    0.0900
     50 H50       -14.5671   -1.0195   55.4911 H       1  ZINC000618094467    0.0600
     51 H51       -15.7660    0.2725   55.7399 H       1  ZINC000618094467    0.0600
     52 H52       -14.0384    0.6768   55.5977 H       1  ZINC000618094467    0.0700
     53 H53       -17.1010   -3.5024   58.0928 H       1  ZINC000618094467    0.0700
     54 H54       -15.8219   -4.7376   58.0120 H       1  ZINC000618094467    0.0700
     55 H55       -15.8879   -3.6137   59.3906 H       1  ZINC000618094467    0.0600
     56 H56       -13.3867   -3.9578   57.4272 H       1  ZINC000618094467    0.1100
     57 H57       -13.5666   -3.0884   58.9729 H       1  ZINC000618094467    0.0700
@<TRIPOS>BOND
     1     1     2    1
     2     1    32    1
     3     1    33    1
     4     1    34    1
     5     2     3    1
     6     2    35    1
     7     2    36    1
     8     3     4    1
     9     3     5    1
    10     3     6    1
    11     5    37    1
    12     5    38    1
    13     5    39    1
    14     6     7    2
    15     6     8   am
    16     8    17    1
    17     8     9    1
    18     9    10    1
    19     9    40    1
    20     9    41    1
    21    10    15   ar
    22    10    11   ar
    23    11    12   ar
    24    11    42    1
    25    12    13   ar
    26    12    43    1
    27    13    14   ar
    28    13    44    1
    29    14    15   ar
    30    14    45    1
    31    15    16    1
    32    16    17    1
    33    16    46    1
    34    16    47    1
    35    17    18    1
    36    17    19    1
    37    19    20    2
    38    19    21   am
    39    21    31    1
    40    21    22    1
    41    22    23    1
    42    22    48    1
    43    22    49    1
    44    23    24    1
    45    23    25    1
    46    23    26    1
    47    25    50    1
    48    25    51    1
    49    25    52    1
    50    26    27    2
    51    26    28    1
    52    28    29    1
    53    28    30    1
    54    28    31    1
    55    30    53    1
    56    30    54    1
    57    30    55    1
    58    31    56    1
    59    31    57    1
@<TRIPOS>SUBSTRUCTURE
     1 ZINC000618094467        1 TEMP              0 ****  ****    0 ROOT


##########                                Name:    ZINC000863246516
##########                DOCK_Rotatable_Bonds:                   5
##########                         Heavy_Atoms:                  25
##########                    Molecular_Weight:             356.489
##########                DOCK_Rotatable_Bonds:                   5
##########                       Formal_Charge:         -0.00999938
##########                     HBond_Acceptors:                   5
##########                        HBond_Donors:                   0
##########                         Heavy_Atoms:                  25
##########                          Grid_Score:          -29.958336
##########                     Grid_vdw_energy:          -29.870775
##########                      Grid_es_energy:           -0.087561
##########           Internal_energy_repulsive:            9.901145

@<TRIPOS>MOLECULE
ZINC000863246516
 49 52 1 0 0
SMALL
USER_CHARGES


@<TRIPOS>ATOM
      1 C1        -11.8137    0.7441   61.9200 C.3     1  ZINC000863246516   -0.0600
      2 C2        -10.7626    0.1288   61.0324 C.2     1  ZINC000863246516   -0.2000
      3 C3        -10.9296   -0.3714   59.8161 C.2     1  ZINC000863246516    0.0900
      4 C4        -12.2779   -0.3801   59.1431 C.3     1  ZINC000863246516   -0.1000
      5 N5         -9.8215   -0.8770   59.2041 N.am    1  ZINC000863246516   -0.5300
      6 C6         -9.8892   -1.4543   57.8594 C.3     1  ZINC000863246516    0.1200
      7 C7         -9.3219   -0.4571   56.8471 C.3     1  ZINC000863246516   -0.1500
      8 C8         -9.6015   -0.9462   55.4494 C.2     1  ZINC000863246516    0.5400
      9 O9        -10.1688   -2.0046   55.2794 O.2     1  ZINC000863246516   -0.5300
     10 N10        -9.2211   -0.2076   54.3882 N.am    1  ZINC000863246516   -0.6100
     11 C11        -9.4331   -0.5699   52.9823 C.3     1  ZINC000863246516    0.1100
     12 C12        -9.2743    0.7245   52.1621 C.3     1  ZINC000863246516   -0.1300
     13 H13       -10.2054    1.1896   51.8385 H       1  ZINC000863246516    0.1000
     14 C14        -8.1514    0.6410   51.1149 C.3     1  ZINC000863246516   -0.1200
     15 C15        -7.1588    0.8740   52.2653 C.3     1  ZINC000863246516   -0.0600
     16 H16        -6.8249   -0.0455   52.7460 H       1  ZINC000863246516    0.1000
     17 C17        -6.0191    1.7906   51.9017 C.ar    1  ZINC000863246516   -0.0700
     18 C18        -5.5321    1.8082   50.6081 C.ar    1  ZINC000863246516   -0.1200
     19 C19        -4.4867    2.6489   50.2746 C.ar    1  ZINC000863246516   -0.1200
     20 C20        -3.9286    3.4724   51.2345 C.ar    1  ZINC000863246516   -0.1200
     21 C21        -4.4163    3.4554   52.5279 C.ar    1  ZINC000863246516   -0.1200
     22 C22        -5.4645    2.6178   52.8604 C.ar    1  ZINC000863246516   -0.1200
     23 C23        -8.3163    1.5860   53.0221 C.3     1  ZINC000863246516   -0.1100
     24 H24        -8.3767    2.6662   52.8898 H       1  ZINC000863246516    0.1200
     25 C25        -8.5359    1.0872   54.4581 C.3     1  ZINC000863246516    0.1200
     26 C26        -8.6655   -0.8235   59.8845 C.2     1  ZINC000863246516    0.4800
     27 O27        -7.5754   -1.2198   59.5120 O.2     1  ZINC000863246516   -0.4700
     28 S28        -9.0385   -0.0734   61.3892 S.3     1  ZINC000863246516    0.0100
     29 H29       -11.3565    1.0647   62.8561 H       1  ZINC000863246516    0.0700
     30 H30       -12.2550    1.6049   61.4176 H       1  ZINC000863246516    0.0800
     31 H31       -12.5899    0.0076   62.1282 H       1  ZINC000863246516    0.0800
     32 H32       -13.0177    0.0691   59.8057 H       1  ZINC000863246516    0.0900
     33 H33       -12.2253    0.1916   58.2166 H       1  ZINC000863246516    0.0800
     34 H34       -12.5662   -1.4075   58.9202 H       1  ZINC000863246516    0.0800
     35 H35        -9.3055   -2.3744   57.8292 H       1  ZINC000863246516    0.1000
     36 H36       -10.9272   -1.6742   57.6103 H       1  ZINC000863246516    0.1000
     37 H37        -9.7922    0.5155   56.9925 H       1  ZINC000863246516    0.1000
     38 H38        -8.2454   -0.3654   56.9915 H       1  ZINC000863246516    0.1000
     39 H39        -8.6893   -1.3030   52.6697 H       1  ZINC000863246516    0.0700
     40 H40       -10.4361   -0.9754   52.8487 H       1  ZINC000863246516    0.0800
     41 H41        -8.0591   -0.3414   50.6520 H       1  ZINC000863246516    0.0800
     42 H42        -8.1731    1.4520   50.3870 H       1  ZINC000863246516    0.0900
     43 H43        -5.9680    1.1650   49.8581 H       1  ZINC000863246516    0.1200
     44 H44        -4.1057    2.6622   49.2640 H       1  ZINC000863246516    0.1200
     45 H45        -3.1114    4.1287   50.9741 H       1  ZINC000863246516    0.1200
     46 H46        -3.9801    4.0984   53.2780 H       1  ZINC000863246516    0.1200
     47 H47        -5.8455    2.6044   53.8709 H       1  ZINC000863246516    0.1200
     48 H48        -9.1369    1.8091   55.0111 H       1  ZINC000863246516    0.0700
     49 H49        -7.5740    0.9525   54.9527 H       1  ZINC000863246516    0.0700
@<TRIPOS>BOND
     1     1     2    1
     2     1    29    1
     3     1    30    1
     4     1    31    1
     5     2    28    1
     6     2     3    2
     7     3     4    1
     8     3     5    1
     9     4    32    1
    10     4    33    1
    11     4    34    1
    12     5     6    1
    13     5    26   am
    14     6     7    1
    15     6    35    1
    16     6    36    1
    17     7     8    1
    18     7    37    1
    19     7    38    1
    20     8     9    2
    21     8    10   am
    22    10    25    1
    23    10    11    1
    24    11    12    1
    25    11    39    1
    26    11    40    1
    27    12    13    1
    28    12    23    1
    29    12    14    1
    30    14    15    1
    31    14    41    1
    32    14    42    1
    33    15    16    1
    34    15    17    1
    35    15    23    1
    36    17    22   ar
    37    17    18   ar
    38    18    19   ar
    39    18    43    1
    40    19    20   ar
    41    19    44    1
    42    20    21   ar
    43    20    45    1
    44    21    22   ar
    45    21    46    1
    46    22    47    1
    47    23    24    1
    48    23    25    1
    49    25    48    1
    50    25    49    1
    51    26    27    2
    52    26    28    1
@<TRIPOS>SUBSTRUCTURE
     1 ZINC000863246516        1 TEMP              0 ****  ****    0 ROOT


##########                                Name:    ZINC000301324012
##########                DOCK_Rotatable_Bonds:                   7
##########                         Heavy_Atoms:                  28
##########                    Molecular_Weight:               415.9
##########                DOCK_Rotatable_Bonds:                   7
##########                       Formal_Charge:          -0.0100002
##########                     HBond_Acceptors:                   8
##########                        HBond_Donors:                   2
##########                         Heavy_Atoms:                  28
##########                          Grid_Score:          -29.950712
##########                     Grid_vdw_energy:          -30.176844
##########                      Grid_es_energy:            0.226132
##########           Internal_energy_repulsive:           11.964544

@<TRIPOS>MOLECULE
ZINC000301324012
 46 48 1 0 0
SMALL
USER_CHARGES


@<TRIPOS>ATOM
      1 C1         -7.3745   -0.1699   51.2923 C.3     1  ZINC000301324012   -0.1600
      2 C2         -7.5531    1.1792   51.9915 C.3     1  ZINC000301324012    0.2000
      3 H3         -8.4131    1.6973   51.5673 H       1  ZINC000301324012    0.1100
      4 N4         -7.7718    0.9617   53.4237 N.am    1  ZINC000301324012   -0.7100
      5 C5         -9.0208    0.7743   53.8939 C.2     1  ZINC000301324012    0.5500
      6 O6         -9.9659    0.7840   53.1295 O.2     1  ZINC000301324012   -0.5300
      7 C7         -9.2416    0.5566   55.3395 C.ar    1  ZINC000301324012   -0.0700
      8 C8        -10.5144    0.7241   55.8872 C.ar    1  ZINC000301324012   -0.1100
      9 C9        -10.7137    0.5189   57.2368 C.ar    1  ZINC000301324012   -0.0200
     10 C10        -9.6552    0.1483   58.0470 C.ar    1  ZINC000301324012   -0.6600
     11 S11        -9.9184   -0.1114   59.7698 S.o2    1  ZINC000301324012    2.6900
     12 O12        -8.6351   -0.0875   60.3798 O.2     1  ZINC000301324012   -0.9400
     13 O13       -10.9758    0.7585   60.1497 O.2     1  ZINC000301324012   -0.9400
     14 N14       -10.4936   -1.6536   59.9510 N.am    1  ZINC000301324012   -1.0500
     15 C15       -11.6884   -2.0309   59.3321 C.ar    1  ZINC000301324012    0.1600
     16 C16       -12.9026   -1.5725   59.8254 C.ar    1  ZINC000301324012   -0.1600
     17 C17       -14.0821   -1.9473   59.2112 C.ar    1  ZINC000301324012   -0.0800
     18 C18       -14.0549   -2.7782   58.1066 C.ar    1  ZINC000301324012   -0.1200
     19 C19       -12.8475   -3.2371   57.6118 C.ar    1  ZINC000301324012   -0.0900
     20 C20       -11.6637   -2.8614   58.2173 C.ar    1  ZINC000301324012   -0.0600
     21 Cl21      -10.1485   -3.4375   57.5960 Cl      1  ZINC000301324012   -0.0600
     22 C22        -8.3910   -0.0200   57.5103 C.ar    1  ZINC000301324012   -0.0200
     23 C23        -8.1793    0.1770   56.1614 C.ar    1  ZINC000301324012   -0.0800
     24 C24        -6.3151    2.0153   51.7936 C.ar    1  ZINC000301324012    0.1200
     25 C25        -5.9464    2.9295   52.7619 C.ar    1  ZINC000301324012   -0.1600
     26 C26        -4.8052    3.6937   52.5702 C.ar    1  ZINC000301324012   -0.0700
     27 C27        -4.0748    3.5083   51.4066 C.ar    1  ZINC000301324012   -0.1700
     28 C28        -4.5052    2.5746   50.4828 C.ar    1  ZINC000301324012    0.1100
     29 N29        -5.5930    1.8619   50.7007 N.ar    1  ZINC000301324012   -0.4900
     30 H30        -7.2119   -0.0082   50.2267 H       1  ZINC000301324012    0.0700
     31 H31        -6.5146   -0.6881   51.7166 H       1  ZINC000301324012    0.0600
     32 H32        -8.2701   -0.7747   51.4355 H       1  ZINC000301324012    0.0700
     33 H33        -7.0175    0.9528   54.0336 H       1  ZINC000301324012    0.4100
     34 H34       -11.3414    1.0141   55.2559 H       1  ZINC000301324012    0.1400
     35 H35       -11.6981    0.6482   57.6619 H       1  ZINC000301324012    0.1500
     36 H36       -10.0013   -2.2950   60.4869 H       1  ZINC000301324012    0.4300
     37 H37       -12.9251   -0.9240   60.6886 H       1  ZINC000301324012    0.1700
     38 H38       -15.0267   -1.5909   59.5948 H       1  ZINC000301324012    0.1400
     39 H39       -14.9786   -3.0700   57.6290 H       1  ZINC000301324012    0.1400
     40 H40       -12.8298   -3.8860   56.7488 H       1  ZINC000301324012    0.1400
     41 H41        -7.5691   -0.3098   58.1481 H       1  ZINC000301324012    0.1500
     42 H42        -7.1921    0.0450   55.7436 H       1  ZINC000301324012    0.1500
     43 H43        -6.5399    3.0479   53.6564 H       1  ZINC000301324012    0.1400
     44 H44        -4.4931    4.4163   53.3097 H       1  ZINC000301324012    0.1400
     45 H45        -3.1809    4.0863   51.2242 H       1  ZINC000301324012    0.1400
     46 H46        -3.9419    2.4244   49.5736 H       1  ZINC000301324012    0.1600
@<TRIPOS>BOND
     1     1     2    1
     2     1    30    1
     3     1    31    1
     4     1    32    1
     5     2     3    1
     6     2     4    1
     7     2    24    1
     8     4     5   am
     9     4    33    1
    10     5     6    2
    11     5     7    1
    12     7    23   ar
    13     7     8   ar
    14     8     9   ar
    15     8    34    1
    16     9    10   ar
    17     9    35    1
    18    10    11    1
    19    10    22   ar
    20    11    12    2
    21    11    13    2
    22    11    14   am
    23    14    15    1
    24    14    36    1
    25    15    20   ar
    26    15    16   ar
    27    16    17   ar
    28    16    37    1
    29    17    18   ar
    30    17    38    1
    31    18    19   ar
    32    18    39    1
    33    19    20   ar
    34    19    40    1
    35    20    21    1
    36    22    23   ar
    37    22    41    1
    38    23    42    1
    39    24    29   ar
    40    24    25   ar
    41    25    26   ar
    42    25    43    1
    43    26    27   ar
    44    26    44    1
    45    27    28   ar
    46    27    45    1
    47    28    29   ar
    48    28    46    1
@<TRIPOS>SUBSTRUCTURE
     1 ZINC000301324012        1 TEMP              0 ****  ****    0 ROOT


##########                                Name:    ZINC000504638019
##########                DOCK_Rotatable_Bonds:                   8
##########                         Heavy_Atoms:                  24
##########                    Molecular_Weight:             328.454
##########                DOCK_Rotatable_Bonds:                   8
##########                       Formal_Charge:        -1.49012e-08
##########                     HBond_Acceptors:                   4
##########                        HBond_Donors:                   1
##########                         Heavy_Atoms:                  24
##########                          Grid_Score:          -29.946243
##########                     Grid_vdw_energy:          -29.515381
##########                      Grid_es_energy:           -0.430863
##########           Internal_energy_repulsive:           16.886152

@<TRIPOS>MOLECULE
ZINC000504638019
 52 53 1 0 0
SMALL
USER_CHARGES


@<TRIPOS>ATOM
      1 C1         -5.1669    1.7511   50.0837 C.3     1  ZINC000504638019   -0.1200
      2 C2         -6.4084    1.3838   50.8550 C.ar    1  ZINC000504638019   -0.0900
      3 C3         -7.2836    2.3714   51.2669 C.ar    1  ZINC000504638019   -0.1200
      4 C4         -8.4224    2.0346   51.9743 C.ar    1  ZINC000504638019   -0.1100
      5 C5         -8.6861    0.7101   52.2697 C.ar    1  ZINC000504638019   -0.0900
      6 C6         -9.9274    0.3429   53.0414 C.3     1  ZINC000504638019   -0.0600
      7 H7        -10.3563    1.2400   53.4879 H       1  ZINC000504638019    0.0900
      8 C8        -10.9472   -0.2930   52.0944 C.3     1  ZINC000504638019   -0.1500
      9 C9         -9.5658   -0.6532   54.1449 C.3     1  ZINC000504638019    0.1300
     10 N10       -10.6500   -0.7071   55.1287 N.am    1  ZINC000504638019   -0.7000
     11 C11       -11.1111   -1.8982   55.5589 C.2     1  ZINC000504638019    0.5100
     12 O12       -10.6272   -2.9261   55.1325 O.2     1  ZINC000504638019   -0.5100
     13 C13       -12.2183   -1.9531   56.5612 C.2     1  ZINC000504638019    0.5100
     14 O14       -13.3648   -1.7671   56.2096 O.2     1  ZINC000504638019   -0.5200
     15 N15       -11.9436   -2.2093   57.8555 N.am    1  ZINC000504638019   -0.5800
     16 C16       -13.0290   -2.2631   58.8379 C.3     1  ZINC000504638019    0.0600
     17 C17       -10.5596   -2.4340   58.2800 C.3     1  ZINC000504638019    0.1100
     18 C18       -10.1744   -1.3944   59.3343 C.3     1  ZINC000504638019   -0.1000
     19 H19       -10.8324   -1.4875   60.1983 H       1  ZINC000504638019    0.0800
     20 C20       -10.2999    0.0106   58.7412 C.3     1  ZINC000504638019   -0.0800
     21 C21        -9.6789    1.0185   59.6635 C.2     1  ZINC000504638019   -0.1500
     22 C22        -8.8560    0.7190   60.6167 C.2     1  ZINC000504638019   -0.1600
     23 C23        -8.4157   -0.6790   60.9392 C.3     1  ZINC000504638019   -0.0900
     24 C24        -8.7196   -1.6145   59.7682 C.3     1  ZINC000504638019   -0.1100
     25 C25        -7.8116   -0.2776   51.8566 C.ar    1  ZINC000504638019   -0.1100
     26 C26        -6.6748    0.0590   51.1458 C.ar    1  ZINC000504638019   -0.1200
     27 H27        -5.3888    1.7511   49.0166 H       1  ZINC000504638019    0.0700
     28 H28        -4.8321    2.7437   50.3852 H       1  ZINC000504638019    0.0700
     29 H29        -4.3817    1.0242   50.2915 H       1  ZINC000504638019    0.0700
     30 H30        -7.0775    3.4061   51.0362 H       1  ZINC000504638019    0.1200
     31 H31        -9.1058    2.8061   52.2967 H       1  ZINC000504638019    0.1200
     32 H32       -11.8449   -0.5586   52.6527 H       1  ZINC000504638019    0.0600
     33 H33       -11.2048    0.4167   51.3083 H       1  ZINC000504638019    0.0600
     34 H34       -10.5183   -1.1900   51.6479 H       1  ZINC000504638019    0.0600
     35 H35        -9.4213   -1.6418   53.7090 H       1  ZINC000504638019    0.0800
     36 H36        -8.6458   -0.3343   54.6351 H       1  ZINC000504638019    0.0800
     37 H37       -11.0359    0.1146   55.4705 H       1  ZINC000504638019    0.4100
     38 H38       -13.4784   -3.2561   58.8289 H       1  ZINC000504638019    0.0600
     39 H39       -12.6312   -2.0534   59.8308 H       1  ZINC000504638019    0.0700
     40 H40       -13.7852   -1.5199   58.5850 H       1  ZINC000504638019    0.1100
     41 H41       -10.4675   -3.4336   58.7048 H       1  ZINC000504638019    0.0900
     42 H42        -9.8963   -2.3423   57.4200 H       1  ZINC000504638019    0.0900
     43 H43        -9.7925    0.0424   57.7769 H       1  ZINC000504638019    0.0800
     44 H44       -11.3538    0.2507   58.6006 H       1  ZINC000504638019    0.0600
     45 H45        -9.9342    2.0584   59.5230 H       1  ZINC000504638019    0.1000
     46 H46        -8.4613    1.5253   61.2172 H       1  ZINC000504638019    0.1000
     47 H47        -7.3439   -0.6835   61.1377 H       1  ZINC000504638019    0.0700
     48 H48        -8.9464   -1.0298   61.8242 H       1  ZINC000504638019    0.0700
     49 H49        -8.5774   -2.6494   60.0795 H       1  ZINC000504638019    0.0700
     50 H50        -8.0562   -1.3851   58.9342 H       1  ZINC000504638019    0.0700
     51 H51        -8.0178   -1.3124   52.0869 H       1  ZINC000504638019    0.1200
     52 H52        -5.9916   -0.7127   50.8231 H       1  ZINC000504638019    0.1200
@<TRIPOS>BOND
     1     1     2    1
     2     1    27    1
     3     1    28    1
     4     1    29    1
     5     2    26   ar
     6     2     3   ar
     7     3     4   ar
     8     3    30    1
     9     4     5   ar
    10     4    31    1
    11     5     6    1
    12     5    25   ar
    13     6     7    1
    14     6     8    1
    15     6     9    1
    16     8    32    1
    17     8    33    1
    18     8    34    1
    19     9    10    1
    20     9    35    1
    21     9    36    1
    22    10    11   am
    23    10    37    1
    24    11    12    2
    25    11    13    1
    26    13    14    2
    27    13    15   am
    28    15    16    1
    29    15    17    1
    30    16    38    1
    31    16    39    1
    32    16    40    1
    33    17    18    1
    34    17    41    1
    35    17    42    1
    36    18    19    1
    37    18    24    1
    38    18    20    1
    39    20    21    1
    40    20    43    1
    41    20    44    1
    42    21    22    2
    43    21    45    1
    44    22    23    1
    45    22    46    1
    46    23    24    1
    47    23    47    1
    48    23    48    1
    49    24    49    1
    50    24    50    1
    51    25    26   ar
    52    25    51    1
    53    26    52    1
@<TRIPOS>SUBSTRUCTURE
     1 ZINC000504638019        1 TEMP              0 ****  ****    0 ROOT


##########                                Name:    ZINC000652498551
##########                DOCK_Rotatable_Bonds:                   6
##########                         Heavy_Atoms:                  23
##########                    Molecular_Weight:             388.277
##########                DOCK_Rotatable_Bonds:                   6
##########                       Formal_Charge:          -0.0400001
##########                     HBond_Acceptors:                   5
##########                        HBond_Donors:                   1
##########                         Heavy_Atoms:                  23
##########                          Grid_Score:          -29.902891
##########                     Grid_vdw_energy:          -29.085596
##########                      Grid_es_energy:           -0.817296
##########           Internal_energy_repulsive:           27.886673

@<TRIPOS>MOLECULE
ZINC000652498551
 46 47 1 0 0
SMALL
USER_CHARGES


@<TRIPOS>ATOM
      1 C1         -9.5346    0.5685   52.6430 C.3     1  ZINC000652498551   -0.1300
      2 C2         -8.0637    0.9842   52.7117 C.3     1  ZINC000652498551   -0.1300
      3 C3         -7.5754    0.8941   54.1589 C.3     1  ZINC000652498551   -0.1300
      4 C4         -7.2411    0.0653   51.8458 C.2     1  ZINC000652498551    0.5000
      5 O5         -7.7362   -0.4440   50.8549 O.co2   1  ZINC000652498551   -0.7000
      6 O6         -6.0803   -0.1688   52.1360 O.co2   1  ZINC000652498551   -0.6700
      7 C7         -7.9165    2.4229   52.2124 C.3     1  ZINC000652498551   -0.0600
      8 H8         -8.4546    3.0965   52.8794 H       1  ZINC000652498551    0.0700
      9 C9         -8.4931    2.5350   50.7982 C.3     1  ZINC000652498551   -0.1500
     10 C10        -8.2704    3.9581   50.2780 C.3     1  ZINC000652498551   -0.1400
     11 C11        -6.7759    4.2834   50.3224 C.3     1  ZINC000652498551   -0.0100
     12 N12        -6.2907    4.1845   51.7042 N.4     1  ZINC000652498551   -0.3800
     13 H13        -6.8278    4.8030   52.2933 H       1  ZINC000652498551    0.4200
     14 C14        -4.8744    4.5713   51.7532 C.3     1  ZINC000652498551    0.0000
     15 C15        -4.0277    3.4940   51.0723 C.3     1  ZINC000652498551    0.0200
     16 O16        -2.6420    3.7795   51.2733 O.3     1  ZINC000652498551   -0.3100
     17 C17        -1.7479    2.9590   50.6616 C.ar    1  ZINC000652498551    0.1600
     18 C18        -0.3872    3.1740   50.8197 C.ar    1  ZINC000652498551   -0.2300
     19 C19         0.5215    2.3371   50.1958 C.ar    1  ZINC000652498551    0.1500
     20 F20         1.8474    2.5457   50.3492 F       1  ZINC000652498551   -0.1200
     21 C21         0.0720    1.2860   49.4147 C.ar    1  ZINC000652498551   -0.1600
     22 C22        -1.2855    1.0713   49.2560 C.ar    1  ZINC000652498551   -0.0300
     23 Br23       -1.8961   -0.3652   48.1886 Br      1  ZINC000652498551   -0.0100
     24 C24        -2.1958    1.9017   49.8825 C.ar    1  ZINC000652498551   -0.1300
     25 C25        -6.4351    2.8056   52.1862 C.3     1  ZINC000652498551   -0.0200
     26 H26       -10.1296    1.2332   53.2693 H       1  ZINC000652498551    0.0400
     27 H27        -9.8825    0.6327   51.6120 H       1  ZINC000652498551    0.0500
     28 H28        -9.6395   -0.4564   52.9986 H       1  ZINC000652498551    0.0600
     29 H29        -7.6802   -0.1309   54.5145 H       1  ZINC000652498551    0.0700
     30 H30        -6.5275    1.1901   54.2078 H       1  ZINC000652498551    0.0400
     31 H31        -8.1704    1.5587   54.7852 H       1  ZINC000652498551    0.0500
     32 H32        -7.9904    1.8243   50.1422 H       1  ZINC000652498551    0.1300
     33 H33        -9.5611    2.3185   50.8219 H       1  ZINC000652498551    0.0800
     34 H34        -8.6284    4.0303   49.2511 H       1  ZINC000652498551    0.1000
     35 H35        -8.8155    4.6641   50.9046 H       1  ZINC000652498551    0.0700
     36 H36        -6.2319    3.5771   49.6953 H       1  ZINC000652498551    0.1300
     37 H37        -6.6138    5.2958   49.9525 H       1  ZINC000652498551    0.1100
     38 H38        -4.7389    5.5208   51.2356 H       1  ZINC000652498551    0.1400
     39 H39        -4.5621    4.6760   52.7922 H       1  ZINC000652498551    0.1500
     40 H40        -4.2641    2.5205   51.5019 H       1  ZINC000652498551    0.1100
     41 H41        -4.2450    3.4822   50.0042 H       1  ZINC000652498551    0.0900
     42 H42        -0.0368    3.9939   51.4290 H       1  ZINC000652498551    0.1500
     43 H43         0.7818    0.6333   48.9285 H       1  ZINC000652498551    0.1500
     44 H44        -3.2552    1.7330   49.7583 H       1  ZINC000652498551    0.1500
     45 H45        -6.0213    2.7274   53.1915 H       1  ZINC000652498551    0.1100
     46 H46        -5.8987    2.1302   51.5198 H       1  ZINC000652498551    0.1700
@<TRIPOS>BOND
     1     1     2    1
     2     1    26    1
     3     1    27    1
     4     1    28    1
     5     2     3    1
     6     2     4    1
     7     2     7    1
     8     3    29    1
     9     3    30    1
    10     3    31    1
    11     4     5   ar
    12     4     6   ar
    13     7     8    1
    14     7    25    1
    15     7     9    1
    16     9    10    1
    17     9    32    1
    18     9    33    1
    19    10    11    1
    20    10    34    1
    21    10    35    1
    22    11    12    1
    23    11    36    1
    24    11    37    1
    25    12    13    1
    26    12    14    1
    27    12    25    1
    28    14    15    1
    29    14    38    1
    30    14    39    1
    31    15    16    1
    32    15    40    1
    33    15    41    1
    34    16    17    1
    35    17    24   ar
    36    17    18   ar
    37    18    19   ar
    38    18    42    1
    39    19    20    1
    40    19    21   ar
    41    21    22   ar
    42    21    43    1
    43    22    23    1
    44    22    24   ar
    45    24    44    1
    46    25    45    1
    47    25    46    1
@<TRIPOS>SUBSTRUCTURE
     1 ZINC000652498551        1 TEMP              0 ****  ****    0 ROOT


##########                                Name:    ZINC000225856071
##########                DOCK_Rotatable_Bonds:                   6
##########                         Heavy_Atoms:                  29
##########                    Molecular_Weight:             409.549
##########                DOCK_Rotatable_Bonds:                   6
##########                       Formal_Charge:         -0.00999989
##########                     HBond_Acceptors:                   5
##########                        HBond_Donors:                   1
##########                         Heavy_Atoms:                  29
##########                          Grid_Score:          -29.897425
##########                     Grid_vdw_energy:          -29.756582
##########                      Grid_es_energy:           -0.140842
##########           Internal_energy_repulsive:           34.262756

@<TRIPOS>MOLECULE
ZINC000225856071
 56 58 1 0 0
SMALL
USER_CHARGES


@<TRIPOS>ATOM
      1 C1        -14.8520   -0.1576   54.9171 C.3     1  ZINC000225856071    0.0200
      2 O2        -14.9387   -1.4301   55.5615 O.3     1  ZINC000225856071   -0.3100
      3 C3        -13.9392   -1.7545   56.4234 C.ar    1  ZINC000225856071    0.1900
      4 C4        -12.6182   -1.7124   56.0027 C.ar    1  ZINC000225856071   -0.2300
      5 C5        -11.6039   -2.0422   56.8811 C.ar    1  ZINC000225856071    0.0700
      6 C6        -10.1684   -1.9967   56.4246 C.3     1  ZINC000225856071   -0.1800
      7 C7        -11.9047   -2.4135   58.1783 C.ar    1  ZINC000225856071   -0.7100
      8 S8        -10.6089   -2.8330   59.2960 S.o2    1  ZINC000225856071    2.7000
      9 O9        -11.1822   -2.8249   60.5962 O.2     1  ZINC000225856071   -0.9600
     10 O10        -9.9529   -3.9656   58.7429 O.2     1  ZINC000225856071   -0.9500
     11 N11        -9.5111   -1.5935   59.2612 N.am    1  ZINC000225856071   -1.1100
     12 C12        -9.9242   -0.2386   59.6351 C.3     1  ZINC000225856071    0.2400
     13 H13       -11.0088   -0.1567   59.5639 H       1  ZINC000225856071    0.1100
     14 C14        -9.2831    0.7571   58.7033 C.ar    1  ZINC000225856071   -0.1000
     15 C15       -10.0156    1.8276   58.2254 C.ar    1  ZINC000225856071   -0.1000
     16 C16        -9.4275    2.7411   57.3706 C.ar    1  ZINC000225856071   -0.1200
     17 C17        -8.1066    2.5843   56.9941 C.ar    1  ZINC000225856071   -0.1100
     18 C18        -7.3738    1.5143   57.4727 C.ar    1  ZINC000225856071   -0.1100
     19 C19        -7.9607    0.6033   58.3309 C.ar    1  ZINC000225856071   -0.1000
     20 C20        -9.4907    0.0463   61.0500 C.ar    1  ZINC000225856071   -0.0900
     21 C21        -8.3793   -0.5874   61.5731 C.ar    1  ZINC000225856071   -0.1000
     22 C22        -7.9816   -0.3260   62.8712 C.ar    1  ZINC000225856071   -0.1200
     23 C23        -8.6952    0.5691   63.6456 C.ar    1  ZINC000225856071   -0.0800
     24 C24        -8.2620    0.8536   65.0608 C.3     1  ZINC000225856071   -0.1200
     25 C25        -9.8062    1.2040   63.1220 C.ar    1  ZINC000225856071   -0.1200
     26 C26       -10.2015    0.9456   61.8231 C.ar    1  ZINC000225856071   -0.0600
     27 C27       -11.4124    1.6376   61.2522 C.3     1  ZINC000225856071   -0.1300
     28 C28       -13.2209   -2.4559   58.6002 C.ar    1  ZINC000225856071    0.0200
     29 C29       -14.2383   -2.1228   57.7273 C.ar    1  ZINC000225856071   -0.1400
     30 C30       -15.6725   -2.1688   58.1879 C.3     1  ZINC000225856071   -0.1100
     31 H31       -13.9335   -0.1082   54.3323 H       1  ZINC000225856071    0.0600
     32 H32       -15.7099   -0.0250   54.2578 H       1  ZINC000225856071    0.1000
     33 H33       -14.8466    0.6311   55.6696 H       1  ZINC000225856071    0.0600
     34 H34       -12.3826   -1.4223   54.9894 H       1  ZINC000225856071    0.1400
     35 H35        -9.7566   -1.0063   56.6187 H       1  ZINC000225856071    0.0900
     36 H36        -9.5903   -2.7435   56.9688 H       1  ZINC000225856071    0.1000
     37 H37       -10.1198   -2.2074   55.3563 H       1  ZINC000225856071    0.0800
     38 H38        -8.5948   -1.7647   58.9934 H       1  ZINC000225856071    0.4200
     39 H39       -11.0475    1.9501   58.5196 H       1  ZINC000225856071    0.1200
     40 H40       -10.0001    3.5770   56.9966 H       1  ZINC000225856071    0.1200
     41 H41        -7.6474    3.2975   56.3257 H       1  ZINC000225856071    0.1200
     42 H42        -6.3421    1.3917   57.1782 H       1  ZINC000225856071    0.1200
     43 H43        -7.3881   -0.2327   58.7048 H       1  ZINC000225856071    0.1200
     44 H44        -7.8217   -1.2869   60.9679 H       1  ZINC000225856071    0.1200
     45 H45        -7.1135   -0.8217   63.2801 H       1  ZINC000225856071    0.1200
     46 H46        -7.5614    1.6886   65.0654 H       1  ZINC000225856071    0.0700
     47 H47        -9.1339    1.1076   65.6636 H       1  ZINC000225856071    0.0700
     48 H48        -7.7773   -0.0296   65.4768 H       1  ZINC000225856071    0.0700
     49 H49       -10.3635    1.9037   63.7270 H       1  ZINC000225856071    0.1200
     50 H50       -11.1083    2.5720   60.7804 H       1  ZINC000225856071    0.0800
     51 H51       -11.8835    0.9925   60.5104 H       1  ZINC000225856071    0.0700
     52 H52       -12.1214    1.8486   62.0527 H       1  ZINC000225856071    0.0700
     53 H53       -13.4534   -2.7459   59.6143 H       1  ZINC000225856071    0.1500
     54 H54       -15.9536   -1.1986   58.5979 H       1  ZINC000225856071    0.0700
     55 H55       -16.3181   -2.4068   57.3426 H       1  ZINC000225856071    0.0700
     56 H56       -15.7830   -2.9338   58.9564 H       1  ZINC000225856071    0.0700
@<TRIPOS>BOND
     1     1     2    1
     2     1    31    1
     3     1    32    1
     4     1    33    1
     5     2     3    1
     6     3    29   ar
     7     3     4   ar
     8     4     5   ar
     9     4    34    1
    10     5     6    1
    11     5     7   ar
    12     6    35    1
    13     6    36    1
    14     6    37    1
    15     7     8    1
    16     7    28   ar
    17     8     9    2
    18     8    10    2
    19     8    11   am
    20    11    12    1
    21    11    38    1
    22    12    13    1
    23    12    14    1
    24    12    20    1
    25    14    19   ar
    26    14    15   ar
    27    15    16   ar
    28    15    39    1
    29    16    17   ar
    30    16    40    1
    31    17    18   ar
    32    17    41    1
    33    18    19   ar
    34    18    42    1
    35    19    43    1
    36    20    26   ar
    37    20    21   ar
    38    21    22   ar
    39    21    44    1
    40    22    23   ar
    41    22    45    1
    42    23    24    1
    43    23    25   ar
    44    24    46    1
    45    24    47    1
    46    24    48    1
    47    25    26   ar
    48    25    49    1
    49    26    27    1
    50    27    50    1
    51    27    51    1
    52    27    52    1
    53    28    29   ar
    54    28    53    1
    55    29    30    1
    56    30    54    1
    57    30    55    1
    58    30    56    1
@<TRIPOS>SUBSTRUCTURE
     1 ZINC000225856071        1 TEMP              0 ****  ****    0 ROOT


##########                                Name:    ZINC000286156371
##########                DOCK_Rotatable_Bonds:                   7
##########                         Heavy_Atoms:                  25
##########                    Molecular_Weight:             350.418
##########                DOCK_Rotatable_Bonds:                   7
##########                       Formal_Charge:          0.00999908
##########                     HBond_Acceptors:                   8
##########                        HBond_Donors:                   2
##########                         Heavy_Atoms:                  25
##########                          Grid_Score:          -29.891298
##########                     Grid_vdw_energy:          -29.699509
##########                      Grid_es_energy:           -0.191789
##########           Internal_energy_repulsive:           18.785406

@<TRIPOS>MOLECULE
ZINC000286156371
 51 53 1 0 0
SMALL
USER_CHARGES


@<TRIPOS>ATOM
      1 C1        -10.5690    0.4153   59.9265 C.3     1  <0>        -0.1800
      2 C2         -9.0846    0.1594   59.6577 C.3     1  <0>         0.1400
      3 C3         -8.3411    1.4948   59.5890 C.3     1  <0>        -0.1800
      4 C4         -8.5012   -0.6916   60.7874 C.3     1  <0>        -0.1400
      5 O5         -8.9354   -0.5431   58.3959 O.3     1  <0>        -0.3600
      6 C6         -9.3966   -1.8069   58.3415 C.2     1  <0>         0.6800
      7 O7         -8.7622   -2.7076   58.8543 O.2     1  <0>        -0.5600
      8 N8        -10.5617   -2.0729   57.7185 N.am    1  <0>        -0.5800
      9 C9        -11.1802   -3.4045   57.5853 C.3     1  <0>         0.0700
     10 C10       -12.6905   -3.1222   57.3874 C.3     1  <0>         0.0900
     11 H11       -13.1751   -3.9425   56.8580 H       1  <0>         0.0900
     12 O12       -13.3333   -2.8731   58.6391 O.3     1  <0>        -0.5500
     13 C13       -12.6559   -1.8400   56.5142 C.3     1  <0>        -0.1200
     14 C14       -11.4295   -1.0824   57.0648 C.3     1  <0>         0.1500
     15 H15       -11.7511   -0.3308   57.7857 H       1  <0>         0.1100
     16 C16       -10.6849   -0.4216   55.9334 C.2     1  <0>         0.5200
     17 O17       -11.0260    0.6742   55.5411 O.2     1  <0>        -0.4900
     18 N18        -9.6399   -1.0485   55.3575 N.am    1  <0>        -0.6300
     19 C19        -8.9463   -0.4333   54.3064 C.2     1  <0>         0.3000
     20 N20        -8.6441   -0.9865   53.1535 N.2     1  <0>        -0.3200
     21 N21        -7.9554   -0.0437   52.3871 N.pl3   1  <0>        -0.3600
     22 C22        -7.4234   -0.2136   51.0314 C.3     1  <0>         0.1400
     23 C23        -7.1445    1.1694   50.4336 C.3     1  <0>        -0.1400
     24 C24        -6.3090    1.9941   51.4171 C.3     1  <0>        -0.1300
     25 C25        -7.1708    2.3508   52.6355 C.3     1  <0>        -0.0600
     26 C26        -7.8520    1.0926   53.1149 C.2     1  <0>         0.0900
     27 C27        -8.4582    0.8851   54.2997 C.2     1  <0>        -0.2600
     28 H28       -10.9847    1.0217   59.1217 H       1  <0>         0.0900
     29 H29       -11.0986   -0.5360   59.9755 H       1  <0>         0.0600
     30 H30       -10.6810    0.9427   60.8738 H       1  <0>         0.0700
     31 H31        -8.4532    2.0222   60.5363 H       1  <0>         0.0700
     32 H32        -7.2836    1.3125   59.3977 H       1  <0>         0.0600
     33 H33        -8.7568    2.1012   58.7842 H       1  <0>         0.0900
     34 H34        -9.0309   -1.6430   60.8364 H       1  <0>         0.0700
     35 H35        -7.4437   -0.8739   60.5960 H       1  <0>         0.0700
     36 H36        -8.6132   -0.1642   61.7347 H       1  <0>         0.0800
     37 H37       -10.7750   -3.9259   56.7181 H       1  <0>         0.0800
     38 H38       -11.0192   -3.9899   58.4905 H       1  <0>         0.0900
     39 H39       -14.0523   -2.2283   58.5905 H       1  <0>         0.3900
     40 H40       -12.5176   -2.0930   55.4630 H       1  <0>         0.1000
     41 H41       -13.5638   -1.2533   56.6545 H       1  <0>         0.1100
     42 H42        -9.3678   -1.9254   55.6705 H       1  <0>         0.4200
     43 H43        -6.4978   -0.7878   51.0716 H       1  <0>         0.0800
     44 H44        -8.1542   -0.7374   50.4153 H       1  <0>         0.0900
     45 H45        -6.5971    1.0567   49.4978 H       1  <0>         0.0900
     46 H46        -8.0886    1.6796   50.2425 H       1  <0>         0.0800
     47 H47        -5.4460    1.4115   51.7395 H       1  <0>         0.0700
     48 H48        -5.9708    2.9087   50.9301 H       1  <0>         0.0800
     49 H49        -6.5391    2.7518   53.4281 H       1  <0>         0.0900
     50 H50        -7.9203    3.0898   52.3522 H       1  <0>         0.0900
     51 H51        -8.5507    1.6024   55.1018 H       1  <0>         0.1700
@<TRIPOS>BOND
     1     1     2    1
     2     1    28    1
     3     1    29    1
     4     1    30    1
     5     2     3    1
     6     2     4    1
     7     2     5    1
     8     3    31    1
     9     3    32    1
    10     3    33    1
    11     4    34    1
    12     4    35    1
    13     4    36    1
    14     5     6    1
    15     6     7    2
    16     6     8   am
    17     8    14    1
    18     8     9    1
    19     9    10    1
    20     9    37    1
    21     9    38    1
    22    10    11    1
    23    10    12    1
    24    10    13    1
    25    12    39    1
    26    13    14    1
    27    13    40    1
    28    13    41    1
    29    14    15    1
    30    14    16    1
    31    16    17    2
    32    16    18   am
    33    18    19    1
    34    18    42    1
    35    19    27    1
    36    19    20    2
    37    20    21    1
    38    21    26    1
    39    21    22    1
    40    22    23    1
    41    22    43    1
    42    22    44    1
    43    23    24    1
    44    23    45    1
    45    23    46    1
    46    24    25    1
    47    24    47    1
    48    24    48    1
    49    25    26    1
    50    25    49    1
    51    25    50    1
    52    26    27    2
    53    27    51    1
@<TRIPOS>SUBSTRUCTURE
     1 <0>         1 TEMP              0 ****  ****    0 ROOT


##########                                Name:    ZINC000478980774
##########                DOCK_Rotatable_Bonds:                   4
##########                         Heavy_Atoms:                  26
##########                    Molecular_Weight:             401.818
##########                DOCK_Rotatable_Bonds:                   4
##########                       Formal_Charge:          -0.0100001
##########                     HBond_Acceptors:                   9
##########                        HBond_Donors:                   1
##########                         Heavy_Atoms:                  26
##########                          Grid_Score:          -29.884773
##########                     Grid_vdw_energy:          -29.149464
##########                      Grid_es_energy:           -0.735309
##########           Internal_energy_repulsive:            6.493433

@<TRIPOS>MOLECULE
ZINC000478980774
 40 42 1 0 0
SMALL
USER_CHARGES


@<TRIPOS>ATOM
      1 C1         -8.1172    2.5451   50.4147 C.3     1  ZINC000478980774   -0.1400
      2 C2         -7.4812    2.7981   51.7830 C.3     1  ZINC000478980774   -0.4600
      3 H3         -7.4719    3.8688   51.9870 H       1  ZINC000478980774    0.1500
      4 C4         -8.2806    2.0910   52.8470 C.2     1  ZINC000478980774    0.5400
      5 O5         -9.4470    2.3758   53.0190 O.2     1  ZINC000478980774   -0.5000
      6 N6         -7.6994    1.1423   53.6076 N.am    1  ZINC000478980774   -0.6600
      7 C7         -8.4424    0.4849   54.5967 C.ar    1  ZINC000478980774    0.1600
      8 C8         -8.6479    1.0911   55.8284 C.ar    1  ZINC000478980774   -0.1200
      9 C9         -9.3804    0.4435   56.8055 C.ar    1  ZINC000478980774   -0.0600
     10 C10        -9.9114   -0.8117   56.5587 C.ar    1  ZINC000478980774    0.0100
     11 O11       -10.6568   -1.6478   57.3404 O.3     1  ZINC000478980774   -0.2900
     12 C12       -11.2505   -2.5947   56.4326 C.3     1  ZINC000478980774    0.5700
     13 F13       -11.3589   -3.8524   57.0359 F       1  ZINC000478980774   -0.1100
     14 F14       -12.5049   -2.1463   56.0055 F       1  ZINC000478980774   -0.1500
     15 O15       -10.3242   -2.6402   55.3313 O.3     1  ZINC000478980774   -0.2800
     16 C16        -9.7071   -1.4225   55.3232 C.ar    1  ZINC000478980774    0.0500
     17 C17        -8.9782   -0.7707   54.3432 C.ar    1  ZINC000478980774   -0.0900
     18 S18        -5.7804    2.1673   51.7853 S.o     1  ZINC000478980774    1.3000
     19 O19        -5.7947    0.7658   51.5512 O.2     1  ZINC000478980774   -0.7800
     20 C20        -5.0309    3.0099   50.3644 C.3     1  ZINC000478980774   -0.4300
     21 C21        -3.5916    2.5838   50.2296 C.ar    1  ZINC000478980774   -0.0600
     22 C22        -3.2635    1.4968   49.4419 C.ar    1  ZINC000478980774   -0.1100
     23 C23        -1.9432    1.1056   49.3182 C.ar    1  ZINC000478980774   -0.1100
     24 C24        -0.9506    1.8012   49.9828 C.ar    1  ZINC000478980774   -0.1100
     25 C25        -1.2776    2.8887   50.7710 C.ar    1  ZINC000478980774   -0.1100
     26 C26        -2.5978    3.2842   50.8902 C.ar    1  ZINC000478980774   -0.0300
     27 Cl27       -3.0092    4.6499   51.8800 Cl      1  ZINC000478980774   -0.0600
     28 H28        -7.5390    3.0565   49.6452 H       1  ZINC000478980774    0.0800
     29 H29        -8.1265    1.4744   50.2108 H       1  ZINC000478980774    0.0700
     30 H30        -9.1392    2.9240   50.4133 H       1  ZINC000478980774    0.0700
     31 H31        -6.7665    0.9146   53.4702 H       1  ZINC000478980774    0.4200
     32 H32        -8.2346    2.0697   56.0236 H       1  ZINC000478980774    0.1500
     33 H33        -9.5386    0.9171   57.7631 H       1  ZINC000478980774    0.1500
     34 H34        -8.8229   -1.2404   53.3832 H       1  ZINC000478980774    0.1600
     35 H35        -5.5744    2.7459   49.4572 H       1  ZINC000478980774    0.1100
     36 H36        -5.0779    4.0883   50.5153 H       1  ZINC000478980774    0.1300
     37 H37        -4.0387    0.9525   48.9231 H       1  ZINC000478980774    0.1400
     38 H38        -1.6873    0.2560   48.7025 H       1  ZINC000478980774    0.1300
     39 H39         0.0804    1.4948   49.8864 H       1  ZINC000478980774    0.1300
     40 H40        -0.5020    3.4321   51.2901 H       1  ZINC000478980774    0.1300
@<TRIPOS>BOND
     1     1     2    1
     2     1    28    1
     3     1    29    1
     4     1    30    1
     5     2     3    1
     6     2     4    1
     7     2    18    1
     8     4     5    2
     9     4     6   am
    10     6     7    1
    11     6    31    1
    12     7    17   ar
    13     7     8   ar
    14     8     9   ar
    15     8    32    1
    16     9    10   ar
    17     9    33    1
    18    10    16   ar
    19    10    11    1
    20    11    12    1
    21    12    13    1
    22    12    14    1
    23    12    15    1
    24    15    16    1
    25    16    17   ar
    26    17    34    1
    27    18    19    2
    28    18    20    1
    29    20    21    1
    30    20    35    1
    31    20    36    1
    32    21    26   ar
    33    21    22   ar
    34    22    23   ar
    35    22    37    1
    36    23    24   ar
    37    23    38    1
    38    24    25   ar
    39    24    39    1
    40    25    26   ar
    41    25    40    1
    42    26    27    1
@<TRIPOS>SUBSTRUCTURE
     1 ZINC000478980774        1 TEMP              0 ****  ****    0 ROOT


##########                                Name:    ZINC000518242403
##########                DOCK_Rotatable_Bonds:                   6
##########                         Heavy_Atoms:                  27
##########                    Molecular_Weight:             370.405
##########                DOCK_Rotatable_Bonds:                   6
##########                       Formal_Charge:          -0.0200004
##########                     HBond_Acceptors:                   7
##########                        HBond_Donors:                   1
##########                         Heavy_Atoms:                  27
##########                          Grid_Score:          -29.876251
##########                     Grid_vdw_energy:          -29.325695
##########                      Grid_es_energy:           -0.550556
##########           Internal_energy_repulsive:           16.930374

@<TRIPOS>MOLECULE
ZINC000518242403
 49 52 1 0 0
SMALL
USER_CHARGES


@<TRIPOS>ATOM
      1 C1         -8.5377    1.0628   59.8336 C.3     1  ZINC000518242403   -0.1800
      2 C2         -9.9737    0.5929   59.5931 C.3     1  ZINC000518242403    0.1000
      3 N3         -9.9574   -0.7631   59.0389 N.am    1  ZINC000518242403   -0.6200
      4 C4        -10.0714   -1.9202   59.9301 C.3     1  ZINC000518242403    0.1500
      5 C5        -11.5282   -2.3851   59.9784 C.3     1  ZINC000518242403    0.0300
      6 H6        -11.6164   -3.2500   60.6359 H       1  ZINC000518242403    0.0900
      7 C7        -12.4175   -1.2474   60.4983 C.3     1  ZINC000518242403    0.0300
      8 O8        -13.7721   -1.7104   60.5177 O.3     1  ZINC000518242403   -0.3000
      9 C9        -14.2107   -2.3647   59.4079 C.ar    1  ZINC000518242403    0.0500
     10 C10       -15.5734   -2.5175   59.2017 C.ar    1  ZINC000518242403   -0.1100
     11 C11       -16.0339   -3.1826   58.0807 C.ar    1  ZINC000518242403   -0.1200
     12 C12       -15.1380   -3.6968   57.1625 C.ar    1  ZINC000518242403   -0.1200
     13 C13       -13.7782   -3.5465   57.3612 C.ar    1  ZINC000518242403   -0.1100
     14 C14       -13.3095   -2.8795   58.4829 C.ar    1  ZINC000518242403    0.0500
     15 O15       -11.9680   -2.7331   58.6611 O.3     1  ZINC000518242403   -0.3000
     16 C16        -9.8375   -0.9460   57.7090 C.2     1  ZINC000518242403    0.7100
     17 O17        -9.8255   -2.0715   57.2487 O.2     1  ZINC000518242403   -0.5700
     18 N18        -9.7310    0.1184   56.8892 N.am    1  ZINC000518242403   -0.6800
     19 C19        -9.6063   -0.0719   55.5064 C.ar    1  ZINC000518242403    0.1700
     20 C20        -8.3519   -0.0486   54.9129 C.ar    1  ZINC000518242403   -0.1000
     21 C21        -8.2292   -0.2371   53.5463 C.ar    1  ZINC000518242403    0.0500
     22 C22        -9.3660   -0.4497   52.7701 C.ar    1  ZINC000518242403    0.0200
     23 C23       -10.6164   -0.4715   53.3664 C.ar    1  ZINC000518242403   -0.0800
     24 C24       -10.7372   -0.2893   54.7308 C.ar    1  ZINC000518242403   -0.1000
     25 C25       -12.0990   -0.3136   55.3759 C.3     1  ZINC000518242403   -0.1100
     26 O26        -8.9821   -0.6061   51.4685 O.3     1  ZINC000518242403   -0.3100
     27 C27        -7.6432   -0.0812   51.3971 C.3     1  ZINC000518242403    0.2100
     28 O28        -7.1340   -0.2604   52.7319 O.3     1  ZINC000518242403   -0.3100
     29 H29        -8.0477    0.3889   60.5364 H       1  ZINC000518242403    0.0600
     30 H30        -7.9925    1.0627   58.8898 H       1  ZINC000518242403    0.0600
     31 H31        -8.5498    2.0717   60.2461 H       1  ZINC000518242403    0.0700
     32 H32       -10.5189    0.5930   60.5371 H       1  ZINC000518242403    0.1000
     33 H33       -10.4637    1.2668   58.8905 H       1  ZINC000518242403    0.0700
     34 H34        -9.4440   -2.7296   59.5568 H       1  ZINC000518242403    0.1100
     35 H35        -9.7458   -1.6406   60.9321 H       1  ZINC000518242403    0.0900
     36 H36       -12.1089   -0.9710   61.5065 H       1  ZINC000518242403    0.1300
     37 H37       -12.3335   -0.3842   59.8380 H       1  ZINC000518242403    0.0800
     38 H38       -16.2756   -2.1169   59.9178 H       1  ZINC000518242403    0.1300
     39 H39       -17.0957   -3.3004   57.9220 H       1  ZINC000518242403    0.1300
     40 H40       -15.5007   -4.2170   56.2885 H       1  ZINC000518242403    0.1300
     41 H41       -13.0801   -3.9493   56.6423 H       1  ZINC000518242403    0.1300
     42 H42        -9.7405    1.0162   57.2563 H       1  ZINC000518242403    0.4100
     43 H43        -7.4718    0.1168   55.5166 H       1  ZINC000518242403    0.1500
     44 H44       -11.4978   -0.6364   52.7645 H       1  ZINC000518242403    0.1400
     45 H45       -12.3414   -1.3335   55.6744 H       1  ZINC000518242403    0.0800
     46 H46       -12.0963    0.3312   56.2546 H       1  ZINC000518242403    0.0700
     47 H47       -12.8440    0.0438   54.6651 H       1  ZINC000518242403    0.0800
     48 H48        -7.0476   -0.6471   50.6808 H       1  ZINC000518242403    0.1300
     49 H49        -7.6599    0.9760   51.1322 H       1  ZINC000518242403    0.0900
@<TRIPOS>BOND
     1     1     2    1
     2     1    29    1
     3     1    30    1
     4     1    31    1
     5     2     3    1
     6     2    32    1
     7     2    33    1
     8     3     4    1
     9     3    16   am
    10     4     5    1
    11     4    34    1
    12     4    35    1
    13     5     6    1
    14     5    15    1
    15     5     7    1
    16     7     8    1
    17     7    36    1
    18     7    37    1
    19     8     9    1
    20     9    14   ar
    21     9    10   ar
    22    10    11   ar
    23    10    38    1
    24    11    12   ar
    25    11    39    1
    26    12    13   ar
    27    12    40    1
    28    13    14   ar
    29    13    41    1
    30    14    15    1
    31    16    17    2
    32    16    18   am
    33    18    19    1
    34    18    42    1
    35    19    24   ar
    36    19    20   ar
    37    20    21   ar
    38    20    43    1
    39    21    28    1
    40    21    22   ar
    41    22    23   ar
    42    22    26    1
    43    23    24   ar
    44    23    44    1
    45    24    25    1
    46    25    45    1
    47    25    46    1
    48    25    47    1
    49    26    27    1
    50    27    28    1
    51    27    48    1
    52    27    49    1
@<TRIPOS>SUBSTRUCTURE
     1 ZINC000518242403        1 TEMP              0 ****  ****    0 ROOT


##########                                Name:    ZINC000052999724
##########                DOCK_Rotatable_Bonds:                   6
##########                         Heavy_Atoms:                  25
##########                    Molecular_Weight:             398.571
##########                DOCK_Rotatable_Bonds:                   6
##########                       Formal_Charge:           0.0399994
##########                     HBond_Acceptors:                   8
##########                        HBond_Donors:                   1
##########                         Heavy_Atoms:                  25
##########                          Grid_Score:          -29.859249
##########                     Grid_vdw_energy:          -29.400581
##########                      Grid_es_energy:           -0.458669
##########           Internal_energy_repulsive:           15.458747

@<TRIPOS>MOLECULE
ZINC000052999724
 47 49 1 0 0
SMALL
USER_CHARGES


@<TRIPOS>ATOM
      1 C1        -10.3638   -2.6465   54.9943 C.3     1  ZINC000052999724   -0.1400
      2 C2        -11.1035   -2.0253   56.1808 C.3     1  ZINC000052999724   -0.0400
      3 C3        -11.9784   -3.0878   56.8491 C.3     1  ZINC000052999724   -0.1400
      4 C4        -10.1029   -1.4993   57.1771 C.2     1  ZINC000052999724   -0.0400
      5 C5         -9.7065   -0.1924   57.2253 C.2     1  ZINC000052999724   -0.2600
      6 C6        -10.1816    0.8735   56.3383 C.2     1  ZINC000052999724    0.6000
      7 O7        -11.3290    1.2701   56.4238 O.2     1  ZINC000052999724   -0.5200
      8 N8         -9.3477    1.4143   55.4280 N.am    1  ZINC000052999724   -0.6000
      9 C9         -7.9616    0.9419   55.3087 C.3     1  ZINC000052999724    0.1100
     10 C10        -7.6972    0.5521   53.8510 C.3     1  ZINC000052999724   -0.1400
     11 C11        -8.0389    1.7342   52.9410 C.3     1  ZINC000052999724    0.1500
     12 N12        -7.7560    1.3761   51.5489 N.am    1  ZINC000052999724   -1.1100
     13 S13        -7.2388    2.5347   50.4847 S.o2    1  ZINC000052999724    2.7200
     14 O14        -6.9101    1.8555   49.2806 O.2     1  ZINC000052999724   -0.9500
     15 O15        -8.1886    3.5899   50.5475 O.2     1  ZINC000052999724   -0.9400
     16 C16        -5.7286    3.1864   51.1166 C.2     1  ZINC000052999724   -0.8000
     17 C17        -4.5117    2.7182   50.8352 C.2     1  ZINC000052999724    0.0100
     18 C18        -3.4708    3.3929   51.4495 C.2     1  ZINC000052999724   -0.1600
     19 C19        -3.8424    4.4090   52.2297 C.2     1  ZINC000052999724   -0.1700
     20 S20        -5.5947    4.5587   52.2086 S.3     1  ZINC000052999724    0.2100
     21 C21        -9.5225    2.0804   53.0870 C.3     1  ZINC000052999724   -0.1500
     22 C22        -9.8093    2.4833   54.5319 C.3     1  ZINC000052999724    0.1100
     23 S23        -8.5359    0.0059   58.5223 S.3     1  ZINC000052999724    0.2100
     24 C24        -8.6356   -1.6483   58.9282 C.2     1  ZINC000052999724   -0.2400
     25 C25        -9.5021   -2.2851   58.1318 C.2     1  ZINC000052999724   -0.1300
     26 H26        -9.7405   -1.8896   54.5181 H       1  ZINC000052999724    0.0600
     27 H27        -9.7361   -3.4654   55.3458 H       1  ZINC000052999724    0.0600
     28 H28       -11.0876   -3.0270   54.2736 H       1  ZINC000052999724    0.0600
     29 H29       -11.7313   -1.2065   55.8292 H       1  ZINC000052999724    0.0800
     30 H30       -11.3508   -3.9068   57.2006 H       1  ZINC000052999724    0.0600
     31 H31       -12.5055   -2.6453   57.6944 H       1  ZINC000052999724    0.0600
     32 H32       -12.7023   -3.4684   56.1285 H       1  ZINC000052999724    0.0600
     33 H33        -7.2777    1.7376   55.6039 H       1  ZINC000052999724    0.0800
     34 H34        -7.8148    0.0738   55.9515 H       1  ZINC000052999724    0.0900
     35 H35        -6.6460    0.2910   53.7290 H       1  ZINC000052999724    0.0900
     36 H36        -8.3182   -0.3033   53.5848 H       1  ZINC000052999724    0.0800
     37 H37        -7.4355    2.5966   53.2240 H       1  ZINC000052999724    0.0900
     38 H38        -7.8716    0.4604   51.2505 H       1  ZINC000052999724    0.4200
     39 H39        -4.3508    1.8763   50.1782 H       1  ZINC000052999724    0.1600
     40 H40        -2.4362    3.1172   51.3082 H       1  ZINC000052999724    0.1500
     41 H41        -3.1698    5.0450   52.7863 H       1  ZINC000052999724    0.1800
     42 H42        -9.7703    2.9072   52.4213 H       1  ZINC000052999724    0.1000
     43 H43       -10.1263    1.2106   52.8280 H       1  ZINC000052999724    0.0800
     44 H44       -10.8807    2.6348   54.6632 H       1  ZINC000052999724    0.1000
     45 H45        -9.2764    3.4046   54.7669 H       1  ZINC000052999724    0.0800
     46 H46        -8.0768   -2.1178   59.7243 H       1  ZINC000052999724    0.1700
     47 H47        -9.7083   -3.3410   58.2268 H       1  ZINC000052999724    0.1400
@<TRIPOS>BOND
     1     1     2    1
     2     1    26    1
     3     1    27    1
     4     1    28    1
     5     2     3    1
     6     2     4    1
     7     2    29    1
     8     3    30    1
     9     3    31    1
    10     3    32    1
    11     4    25    1
    12     4     5    2
    13     5     6    1
    14     5    23    1
    15     6     7    2
    16     6     8   am
    17     8    22    1
    18     8     9    1
    19     9    10    1
    20     9    33    1
    21     9    34    1
    22    10    11    1
    23    10    35    1
    24    10    36    1
    25    11    12    1
    26    11    21    1
    27    11    37    1
    28    12    13   am
    29    12    38    1
    30    13    14    2
    31    13    15    2
    32    13    16    1
    33    16    20    1
    34    16    17    2
    35    17    18    1
    36    17    39    1
    37    18    19    2
    38    18    40    1
    39    19    20    1
    40    19    41    1
    41    21    22    1
    42    21    42    1
    43    21    43    1
    44    22    44    1
    45    22    45    1
    46    23    24    1
    47    24    25    2
    48    24    46    1
    49    25    47    1
@<TRIPOS>SUBSTRUCTURE
     1 ZINC000052999724        1 TEMP              0 ****  ****    0 ROOT


##########                                Name:    ZINC000629379364
##########                DOCK_Rotatable_Bonds:                   5
##########                         Heavy_Atoms:                  23
##########                    Molecular_Weight:             386.261
##########                DOCK_Rotatable_Bonds:                   5
##########                       Formal_Charge:               -0.02
##########                     HBond_Acceptors:                   5
##########                        HBond_Donors:                   1
##########                         Heavy_Atoms:                  23
##########                          Grid_Score:          -29.856871
##########                     Grid_vdw_energy:          -29.066835
##########                      Grid_es_energy:           -0.790035
##########           Internal_energy_repulsive:           18.142593

@<TRIPOS>MOLECULE
ZINC000629379364
 44 46 1 0 0
SMALL
USER_CHARGES


@<TRIPOS>ATOM
      1 O1         -8.3260    0.3638   54.8364 O.co2   1  ZINC000629379364   -0.6800
      2 C2         -9.0016    0.1681   53.8405 C.2     1  ZINC000629379364    0.5000
      3 O3        -10.1163   -0.3148   53.9452 O.co2   1  ZINC000629379364   -0.6900
      4 C4         -8.4615    0.5289   52.4807 C.3     1  ZINC000629379364   -0.1600
      5 H5         -8.9458   -0.0772   51.7151 H       1  ZINC000629379364    0.0800
      6 C6         -6.9395    0.3056   52.4433 C.3     1  ZINC000629379364   -0.1300
      7 C7         -6.3419    0.7973   51.1284 C.3     1  ZINC000629379364   -0.0100
      8 N8         -6.6901    2.2061   50.8607 N.4     1  ZINC000629379364   -0.3700
      9 H9         -6.2821    2.4998   49.9858 H       1  ZINC000629379364    0.4200
     10 C10        -6.1979    3.0579   51.9515 C.3     1  ZINC000629379364   -0.0200
     11 C11        -4.6924    3.2762   51.7886 C.3     1  ZINC000629379364    0.0300
     12 O12        -4.3299    3.0922   50.4186 O.3     1  ZINC000629379364   -0.3200
     13 C13        -3.1241    2.5163   50.1715 C.ar    1  ZINC000629379364    0.1600
     14 C14        -1.9727    3.0479   50.7326 C.ar    1  ZINC000629379364   -0.2300
     15 C15        -0.7459    2.4598   50.4796 C.ar    1  ZINC000629379364    0.1500
     16 F16         0.3765    2.9769   51.0258 F       1  ZINC000629379364   -0.1200
     17 C17        -0.6683    1.3413   49.6671 C.ar    1  ZINC000629379364   -0.1600
     18 C18        -1.8164    0.8107   49.1066 C.ar    1  ZINC000629379364   -0.0300
     19 Br19       -1.7071   -0.7171   47.9975 Br      1  ZINC000629379364   -0.0100
     20 C20        -3.0441    1.3922   49.3620 C.ar    1  ZINC000629379364   -0.1300
     21 C21        -8.1396    2.2895   50.7825 C.3     1  ZINC000629379364   -0.0100
     22 H22        -8.5183    1.5503   50.0765 H       1  ZINC000629379364    0.1400
     23 C23        -8.7248    3.6689   50.4625 C.3     1  ZINC000629379364   -0.1300
     24 C24       -10.1742    3.5690   51.0108 C.3     1  ZINC000629379364   -0.1200
     25 C25       -10.1539    2.4692   52.1009 C.3     1  ZINC000629379364   -0.1100
     26 C26        -8.6989    2.0033   52.2024 C.3     1  ZINC000629379364   -0.0700
     27 H27        -8.1599    2.6216   52.9202 H       1  ZINC000629379364    0.1000
     28 H28        -6.4786    0.8467   53.2696 H       1  ZINC000629379364    0.0800
     29 H29        -6.7317   -0.7586   52.5542 H       1  ZINC000629379364    0.1100
     30 H30        -5.2569    0.7023   51.1739 H       1  ZINC000629379364    0.1200
     31 H31        -6.7173    0.1778   50.3140 H       1  ZINC000629379364    0.1300
     32 H32        -6.7099    4.0197   51.9209 H       1  ZINC000629379364    0.1400
     33 H33        -6.3932    2.5726   52.9079 H       1  ZINC000629379364    0.1700
     34 H34        -4.4364    4.2892   52.0992 H       1  ZINC000629379364    0.1100
     35 H35        -4.1522    2.5592   52.4067 H       1  ZINC000629379364    0.0900
     36 H36        -2.0335    3.9204   51.3663 H       1  ZINC000629379364    0.1500
     37 H37         0.2895    0.8827   49.4706 H       1  ZINC000629379364    0.1500
     38 H38        -3.9399    0.9770   48.9242 H       1  ZINC000629379364    0.1500
     39 H39        -8.1703    4.4522   50.9793 H       1  ZINC000629379364    0.0800
     40 H40        -8.7310    3.8450   49.3868 H       1  ZINC000629379364    0.0900
     41 H41       -10.4759    4.5216   51.4462 H       1  ZINC000629379364    0.0800
     42 H42       -10.8587    3.2895   50.2100 H       1  ZINC000629379364    0.0800
     43 H43       -10.4983    2.8744   53.0524 H       1  ZINC000629379364    0.0900
     44 H44       -10.7784    1.6280   51.7999 H       1  ZINC000629379364    0.0800
@<TRIPOS>BOND
     1     1     2   ar
     2     2     3   ar
     3     2     4    1
     4     4     5    1
     5     4    26    1
     6     4     6    1
     7     6     7    1
     8     6    28    1
     9     6    29    1
    10     7     8    1
    11     7    30    1
    12     7    31    1
    13     8     9    1
    14     8    10    1
    15     8    21    1
    16    10    11    1
    17    10    32    1
    18    10    33    1
    19    11    12    1
    20    11    34    1
    21    11    35    1
    22    12    13    1
    23    13    20   ar
    24    13    14   ar
    25    14    15   ar
    26    14    36    1
    27    15    16    1
    28    15    17   ar
    29    17    18   ar
    30    17    37    1
    31    18    19    1
    32    18    20   ar
    33    20    38    1
    34    21    22    1
    35    21    26    1
    36    21    23    1
    37    23    24    1
    38    23    39    1
    39    23    40    1
    40    24    25    1
    41    24    41    1
    42    24    42    1
    43    25    26    1
    44    25    43    1
    45    25    44    1
    46    26    27    1
@<TRIPOS>SUBSTRUCTURE
     1 ZINC000629379364        1 TEMP              0 ****  ****    0 ROOT


##########                                Name:    ZINC001078748831
##########                DOCK_Rotatable_Bonds:                   6
##########                         Heavy_Atoms:                  23
##########                    Molecular_Weight:             333.417
##########                DOCK_Rotatable_Bonds:                   6
##########                       Formal_Charge:           0.0299999
##########                     HBond_Acceptors:                   9
##########                        HBond_Donors:                   2
##########                         Heavy_Atoms:                  23
##########                          Grid_Score:          -29.850433
##########                     Grid_vdw_energy:          -29.036144
##########                      Grid_es_energy:           -0.814290
##########           Internal_energy_repulsive:            5.535079

@<TRIPOS>MOLECULE
ZINC001078748831
 42 45 1 0 0
SMALL
USER_CHARGES


@<TRIPOS>ATOM
      1 C1         -7.9797    0.9107   51.0207 C.3     1  ZINC001078748831    0.1000
      2 N2         -8.4284    0.7046   52.4000 N.pl3   1  ZINC001078748831   -0.1400
      3 N3         -8.5355    1.6381   53.2768 N.2     1  ZINC001078748831   -0.2900
      4 C4         -8.9614    1.1203   54.4038 C.2     1  ZINC001078748831    0.0400
      5 C5         -9.1184   -0.2582   54.1568 C.2     1  ZINC001078748831   -0.0500
      6 C6         -9.5786   -1.2907   55.1091 C.2     1  ZINC001078748831    0.6200
      7 O7         -9.8060   -2.4192   54.7189 O.2     1  ZINC001078748831   -0.5200
      8 N8         -9.7461   -0.9808   56.4101 N.am    1  ZINC001078748831   -0.7000
      9 C9        -10.2039   -2.0038   57.3536 C.3     1  ZINC001078748831    0.1500
     10 H10        -9.7944   -2.9911   57.1401 H       1  ZINC001078748831    0.1100
     11 C11       -11.7273   -2.0017   57.5760 C.3     1  ZINC001078748831   -0.1800
     12 C12       -11.4852   -1.0022   58.7217 C.3     1  ZINC001078748831    0.0800
     13 H13       -11.5047    0.0403   58.4043 H       1  ZINC001078748831    0.1000
     14 N14       -12.3138   -1.2536   59.9083 N.3     1  ZINC001078748831   -0.6700
     15 C15       -13.6853   -0.7680   59.7053 C.3     1  ZINC001078748831    0.1400
     16 C16       -14.5947   -1.9355   59.4206 C.2     1  ZINC001078748831    0.0600
     17 N17       -15.0776   -2.2103   58.2407 N.2     1  ZINC001078748831   -0.5700
     18 S18       -15.9670   -3.4866   58.3577 S.3     1  ZINC001078748831    0.6800
     19 N19       -15.7930   -3.7579   59.8840 N.2     1  ZINC001078748831   -0.5700
     20 C20       -15.0079   -2.8411   60.3781 C.2     1  ZINC001078748831    0.0500
     21 C21       -10.0733   -1.5890   58.8196 C.3     1  ZINC001078748831   -0.1000
     22 C22        -9.7135   -2.6074   59.9018 C.3     1  ZINC001078748831   -0.1000
     23 C23        -8.2808   -2.0487   59.8292 C.3     1  ZINC001078748831   -0.1400
     24 C24        -8.8960   -0.7402   59.3007 C.3     1  ZINC001078748831   -0.1200
     25 N25        -8.7721   -0.4332   52.8907 N.2     1  ZINC001078748831   -0.2500
     26 H26        -8.8396    1.1299   50.3878 H       1  ZINC001078748831    0.1000
     27 H27        -7.2813    1.7470   50.9870 H       1  ZINC001078748831    0.1100
     28 H28        -7.4842    0.0089   50.6612 H       1  ZINC001078748831    0.1100
     29 H29        -9.1518    1.6423   55.3299 H       1  ZINC001078748831    0.2100
     30 H30        -9.5636   -0.0806   56.7216 H       1  ZINC001078748831    0.4100
     31 H31       -12.2892   -1.5811   56.7420 H       1  ZINC001078748831    0.0700
     32 H32       -12.1204   -2.9617   57.9106 H       1  ZINC001078748831    0.1000
     33 H33       -12.3093   -2.2328   60.1517 H       1  ZINC001078748831    0.3500
     34 H34       -14.0253   -0.2533   60.6039 H       1  ZINC001078748831    0.1000
     35 H35       -13.7052   -0.0779   58.8618 H       1  ZINC001078748831    0.0600
     36 H36       -14.7191   -2.7922   61.4177 H       1  ZINC001078748831    0.2000
     37 H37       -10.2068   -2.4241   60.8564 H       1  ZINC001078748831    0.1000
     38 H38        -9.7963   -3.6432   59.5727 H       1  ZINC001078748831    0.0700
     39 H39        -7.8038   -1.9438   60.8037 H       1  ZINC001078748831    0.0700
     40 H40        -7.6500   -2.5592   59.1014 H       1  ZINC001078748831    0.0800
     41 H41        -8.3257   -0.2843   58.4913 H       1  ZINC001078748831    0.0700
     42 H42        -9.1594   -0.0319   60.0863 H       1  ZINC001078748831    0.0900
@<TRIPOS>BOND
     1     1     2    1
     2     1    26    1
     3     1    27    1
     4     1    28    1
     5     2    25    1
     6     2     3    1
     7     3     4    2
     8     4     5    1
     9     4    29    1
    10     5     6    1
    11     5    25    2
    12     6     7    2
    13     6     8   am
    14     8     9    1
    15     8    30    1
    16     9    10    1
    17     9    21    1
    18     9    11    1
    19    11    12    1
    20    11    31    1
    21    11    32    1
    22    12    13    1
    23    12    14    1
    24    12    21    1
    25    14    15    1
    26    14    33    1
    27    15    16    1
    28    15    34    1
    29    15    35    1
    30    16    20    1
    31    16    17    2
    32    17    18    1
    33    18    19    1
    34    19    20    2
    35    20    36    1
    36    21    24    1
    37    21    22    1
    38    22    23    1
    39    22    37    1
    40    22    38    1
    41    23    24    1
    42    23    39    1
    43    23    40    1
    44    24    41    1
    45    24    42    1
@<TRIPOS>SUBSTRUCTURE
     1 ZINC001078748831        1 TEMP              0 ****  ****    0 ROOT


##########                                Name:    ZINC000179743483
##########                DOCK_Rotatable_Bonds:                   5
##########                         Heavy_Atoms:                  23
##########                    Molecular_Weight:             393.347
##########                DOCK_Rotatable_Bonds:                   5
##########                       Formal_Charge:          -0.0199999
##########                     HBond_Acceptors:                   4
##########                        HBond_Donors:                   0
##########                         Heavy_Atoms:                  23
##########                          Grid_Score:          -29.846645
##########                     Grid_vdw_energy:          -29.686745
##########                      Grid_es_energy:           -0.159901
##########           Internal_energy_repulsive:           23.958307

@<TRIPOS>MOLECULE
ZINC000179743483
 44 46 1 0 0
SMALL
USER_CHARGES


@<TRIPOS>ATOM
      1 C1         -9.7792   -3.1579   58.2595 C.3     1  ZINC000179743483   -0.1400
      2 C2         -9.5299   -1.7061   58.6734 C.3     1  ZINC000179743483   -0.1000
      3 H3         -8.5686   -1.3760   58.2793 H       1  ZINC000179743483    0.1000
      4 C4        -10.6428   -0.8179   58.1134 C.3     1  ZINC000179743483   -0.0700
      5 C5        -11.9793   -1.4649   58.3706 C.ar    1  ZINC000179743483   -0.0600
      6 C6        -12.6168   -2.1594   57.3593 C.ar    1  ZINC000179743483   -0.1100
      7 C7        -13.8424   -2.7534   57.5950 C.ar    1  ZINC000179743483   -0.0900
      8 C8        -14.4311   -2.6529   58.8426 C.ar    1  ZINC000179743483   -0.0900
      9 Br9       -16.1075   -3.4659   59.1657 Br      1  ZINC000179743483   -0.0500
     10 C10       -13.7928   -1.9580   59.8541 C.ar    1  ZINC000179743483   -0.0900
     11 C11       -12.5648   -1.3688   59.6191 C.ar    1  ZINC000179743483   -0.1100
     12 C12        -9.5170   -1.6075   60.1770 C.2     1  ZINC000179743483    0.5200
     13 O13       -10.0391   -2.4740   60.8460 O.2     1  ZINC000179743483   -0.5300
     14 N14        -8.9254   -0.5564   60.7784 N.am    1  ZINC000179743483   -0.6100
     15 C15        -8.2888    0.5011   59.9815 C.3     1  ZINC000179743483    0.1000
     16 C16        -8.8667    1.8546   60.4068 C.3     1  ZINC000179743483   -0.1400
     17 C17        -8.7026    2.0223   61.9191 C.3     1  ZINC000179743483   -0.1100
     18 C18        -9.4757    0.9179   62.6434 C.3     1  ZINC000179743483   -0.0200
     19 H19       -10.5283    0.9677   62.3644 H       1  ZINC000179743483    0.0900
     20 C20        -9.3409    1.1032   64.1328 C.2     1  ZINC000179743483    0.0500
     21 N21       -10.1329    1.8129   64.8634 N.2     1  ZINC000179743483   -0.4700
     22 C22        -9.8715    1.8684   66.1539 C.2     1  ZINC000179743483    0.0400
     23 C23        -8.7994    1.1664   66.5329 C.2     1  ZINC000179743483   -0.2600
     24 S24        -8.1204    0.3975   65.1003 S.3     1  ZINC000179743483    0.1300
     25 C25        -8.9101   -0.4432   62.2432 C.3     1  ZINC000179743483    0.1200
     26 H26       -10.7028   -3.5125   58.7170 H       1  ZINC000179743483    0.0700
     27 H27        -9.8653   -3.2167   57.1745 H       1  ZINC000179743483    0.0700
     28 H28        -8.9473   -3.7786   58.5922 H       1  ZINC000179743483    0.0600
     29 H29       -10.6107    0.1561   58.6017 H       1  ZINC000179743483    0.0900
     30 H30       -10.5010   -0.6911   57.0401 H       1  ZINC000179743483    0.0800
     31 H31       -12.1573   -2.2374   56.3852 H       1  ZINC000179743483    0.1300
     32 H32       -14.3406   -3.2956   56.8048 H       1  ZINC000179743483    0.1300
     33 H33       -14.2520   -1.8793   60.8284 H       1  ZINC000179743483    0.1300
     34 H34       -12.0663   -0.8262   60.4088 H       1  ZINC000179743483    0.1300
     35 H35        -7.2128    0.4922   60.1556 H       1  ZINC000179743483    0.0700
     36 H36        -8.4914    0.3335   58.9236 H       1  ZINC000179743483    0.0900
     37 H37        -8.3351    2.6550   59.8923 H       1  ZINC000179743483    0.0800
     38 H38        -9.9249    1.8955   60.1489 H       1  ZINC000179743483    0.0700
     39 H39        -7.6461    1.9563   62.1792 H       1  ZINC000179743483    0.0800
     40 H40        -9.0907    2.9951   62.2209 H       1  ZINC000179743483    0.0700
     41 H41       -10.4742    2.4351   66.8482 H       1  ZINC000179743483    0.1800
     42 H42        -8.4187    1.0821   67.5401 H       1  ZINC000179743483    0.1800
     43 H43        -9.5202   -1.2348   62.6786 H       1  ZINC000179743483    0.0900
     44 H44        -7.8840   -0.5318   62.6000 H       1  ZINC000179743483    0.0800
@<TRIPOS>BOND
     1     1     2    1
     2     1    26    1
     3     1    27    1
     4     1    28    1
     5     2     3    1
     6     2     4    1
     7     2    12    1
     8     4     5    1
     9     4    29    1
    10     4    30    1
    11     5    11   ar
    12     5     6   ar
    13     6     7   ar
    14     6    31    1
    15     7     8   ar
    16     7    32    1
    17     8     9    1
    18     8    10   ar
    19    10    11   ar
    20    10    33    1
    21    11    34    1
    22    12    13    2
    23    12    14   am
    24    14    25    1
    25    14    15    1
    26    15    16    1
    27    15    35    1
    28    15    36    1
    29    16    17    1
    30    16    37    1
    31    16    38    1
    32    17    18    1
    33    17    39    1
    34    17    40    1
    35    18    19    1
    36    18    20    1
    37    18    25    1
    38    20    24    1
    39    20    21    2
    40    21    22    1
    41    22    23    2
    42    22    41    1
    43    23    24    1
    44    23    42    1
    45    25    43    1
    46    25    44    1
@<TRIPOS>SUBSTRUCTURE
     1 ZINC000179743483        1 TEMP              0 ****  ****    0 ROOT


##########                                Name:    ZINC000451019064
##########                DOCK_Rotatable_Bonds:                   8
##########                         Heavy_Atoms:                  23
##########                    Molecular_Weight:             346.534
##########                DOCK_Rotatable_Bonds:                   8
##########                       Formal_Charge:          -0.0200008
##########                     HBond_Acceptors:                   6
##########                        HBond_Donors:                   1
##########                         Heavy_Atoms:                  23
##########                          Grid_Score:          -29.826536
##########                     Grid_vdw_energy:          -29.762875
##########                      Grid_es_energy:           -0.063661
##########           Internal_energy_repulsive:            8.924296

@<TRIPOS>MOLECULE
ZINC000451019064
 57 58 1 0 0
SMALL
USER_CHARGES


@<TRIPOS>ATOM
      1 C1         -7.5785    0.4719   65.7931 C.3     1  ZINC000451019064   -0.1500
      2 C2         -8.7195    0.3967   64.7764 C.3     1  ZINC000451019064    0.0900
      3 H3         -9.5130   -0.2408   65.1664 H       1  ZINC000451019064    0.0700
      4 C4         -8.1950   -0.1863   63.4615 C.3     1  ZINC000451019064    0.0200
      5 N5         -9.2758   -0.1846   62.4651 N.3     1  ZINC000451019064   -0.5400
      6 C6         -8.8295   -0.7897   61.2032 C.3     1  ZINC000451019064    0.0600
      7 C7         -9.9195   -1.7223   60.6711 C.3     1  ZINC000451019064   -0.1300
      8 C8         -9.5223   -2.2322   59.2843 C.3     1  ZINC000451019064    0.1100
      9 N9        -10.5377   -3.1704   58.7997 N.am    1  ZINC000451019064   -1.1200
     10 S10       -11.6142   -2.6960   57.6340 S.o2    1  ZINC000451019064    2.6100
     11 O11       -12.3665   -3.8685   57.3538 O.2     1  ZINC000451019064   -0.9600
     12 O12       -12.2349   -1.5402   58.1797 O.2     1  ZINC000451019064   -0.9500
     13 C13       -10.5767   -2.2509   56.2141 C.3     1  ZINC000451019064   -0.6300
     14 C14       -10.5586   -0.7296   56.0525 C.3     1  ZINC000451019064   -0.1100
     15 C15        -9.7368   -0.3576   54.8168 C.3     1  ZINC000451019064   -0.0800
     16 C16       -10.4342   -0.8872   53.5622 C.3     1  ZINC000451019064   -0.1200
     17 C17        -9.6124   -0.5152   52.3264 C.3     1  ZINC000451019064   -0.1200
     18 C18        -9.4874    1.0070   52.2363 C.3     1  ZINC000451019064   -0.1200
     19 C19        -8.7900    1.5366   53.4909 C.3     1  ZINC000451019064   -0.1200
     20 C20        -9.6119    1.1646   54.7268 C.3     1  ZINC000451019064   -0.1200
     21 C21        -9.7804    1.1788   62.2461 C.3     1  ZINC000451019064    0.0200
     22 C22       -10.2890    1.7482   63.5732 C.3     1  ZINC000451019064    0.0900
     23 H23       -11.1286    1.1504   63.9279 H       1  ZINC000451019064    0.0700
     24 C24       -10.7424    3.1950   63.3682 C.3     1  ZINC000451019064   -0.1500
     25 O25        -9.2348    1.7095   64.5390 O.3     1  ZINC000451019064   -0.3800
     26 H26        -7.9521    0.8885   66.7284 H       1  ZINC000451019064    0.0700
     27 H27        -7.1852   -0.5287   65.9723 H       1  ZINC000451019064    0.0700
     28 H28        -6.7853    1.1094   65.4025 H       1  ZINC000451019064    0.0600
     29 H29        -7.3652    0.4207   63.0995 H       1  ZINC000451019064    0.0400
     30 H30        -7.8541   -1.2083   63.6270 H       1  ZINC000451019064    0.0900
     31 H31        -8.6347   -0.0046   60.4726 H       1  ZINC000451019064    0.0400
     32 H32        -7.9166   -1.3595   61.3764 H       1  ZINC000451019064    0.0800
     33 H33       -10.0372   -2.5676   61.3490 H       1  ZINC000451019064    0.0800
     34 H34       -10.8614   -1.1780   60.6020 H       1  ZINC000451019064    0.0800
     35 H35        -9.4469   -1.3906   58.5957 H       1  ZINC000451019064    0.0800
     36 H36        -8.5592   -2.7389   59.3457 H       1  ZINC000451019064    0.0700
     37 H37       -10.5795   -4.0694   59.1614 H       1  ZINC000451019064    0.4200
     38 H38        -9.5611   -2.6109   56.3790 H       1  ZINC000451019064    0.1300
     39 H39       -10.9817   -2.7074   55.3109 H       1  ZINC000451019064    0.1400
     40 H40       -11.5788   -0.3647   55.9339 H       1  ZINC000451019064    0.0800
     41 H41       -10.1110   -0.2757   56.9367 H       1  ZINC000451019064    0.0800
     42 H42        -8.7436   -0.7998   54.8944 H       1  ZINC000451019064    0.0800
     43 H43       -10.5233   -1.9716   53.6263 H       1  ZINC000451019064    0.0600
     44 H44       -11.4275   -0.4451   53.4847 H       1  ZINC000451019064    0.0700
     45 H45        -8.6192   -0.9573   52.4040 H       1  ZINC000451019064    0.0600
     46 H46       -10.1093   -0.8924   51.4325 H       1  ZINC000451019064    0.0600
     47 H47        -8.9020    1.2720   51.3559 H       1  ZINC000451019064    0.0600
     48 H48       -10.4807    1.4492   52.1587 H       1  ZINC000451019064    0.0600
     49 H49        -7.7968    1.0945   53.5685 H       1  ZINC000451019064    0.0600
     50 H50        -8.7010    2.6211   53.4268 H       1  ZINC000451019064    0.0600
     51 H51       -10.6051    1.6068   54.6492 H       1  ZINC000451019064    0.0700
     52 H52        -9.1150    1.5419   55.6205 H       1  ZINC000451019064    0.0600
     53 H53        -8.9760    1.8077   61.8648 H       1  ZINC000451019064    0.0400
     54 H54       -10.5968    1.1533   61.5244 H       1  ZINC000451019064    0.0900
     55 H55       -11.5439    3.2234   62.6300 H       1  ZINC000451019064    0.0700
     56 H56       -11.1043    3.5997   64.3133 H       1  ZINC000451019064    0.0700
     57 H57        -9.9019    3.7925   63.0151 H       1  ZINC000451019064    0.0600
@<TRIPOS>BOND
     1     1     2    1
     2     1    26    1
     3     1    27    1
     4     1    28    1
     5     2     3    1
     6     2    25    1
     7     2     4    1
     8     4     5    1
     9     4    29    1
    10     4    30    1
    11     5     6    1
    12     5    21    1
    13     6     7    1
    14     6    31    1
    15     6    32    1
    16     7     8    1
    17     7    33    1
    18     7    34    1
    19     8     9    1
    20     8    35    1
    21     8    36    1
    22     9    10   am
    23     9    37    1
    24    10    11    2
    25    10    12    2
    26    10    13    1
    27    13    14    1
    28    13    38    1
    29    13    39    1
    30    14    15    1
    31    14    40    1
    32    14    41    1
    33    15    20    1
    34    15    16    1
    35    15    42    1
    36    16    17    1
    37    16    43    1
    38    16    44    1
    39    17    18    1
    40    17    45    1
    41    17    46    1
    42    18    19    1
    43    18    47    1
    44    18    48    1
    45    19    20    1
    46    19    49    1
    47    19    50    1
    48    20    51    1
    49    20    52    1
    50    21    22    1
    51    21    53    1
    52    21    54    1
    53    22    23    1
    54    22    24    1
    55    22    25    1
    56    24    55    1
    57    24    56    1
    58    24    57    1
@<TRIPOS>SUBSTRUCTURE
     1 ZINC000451019064        1 TEMP              0 ****  ****    0 ROOT


##########                                Name:    ZINC000588570917
##########                DOCK_Rotatable_Bonds:                   7
##########                         Heavy_Atoms:                  25
##########                    Molecular_Weight:             366.481
##########                DOCK_Rotatable_Bonds:                   7
##########                       Formal_Charge:          -0.0100006
##########                     HBond_Acceptors:                   7
##########                        HBond_Donors:                   1
##########                         Heavy_Atoms:                  25
##########                          Grid_Score:          -29.817654
##########                     Grid_vdw_energy:          -29.336252
##########                      Grid_es_energy:           -0.481401
##########           Internal_energy_repulsive:           15.103842

@<TRIPOS>MOLECULE
ZINC000588570917
 51 52 1 0 0
SMALL
USER_CHARGES


@<TRIPOS>ATOM
      1 C1         -7.7786    4.2182   51.1057 C.3     1  ZINC000588570917   -0.1300
      2 C2         -8.5348    3.4283   52.1426 C.2     1  ZINC000588570917   -0.0500
      3 C3         -8.0039    2.3202   52.6522 C.2     1  ZINC000588570917   -0.2000
      4 C4         -6.6471    1.8536   52.1914 C.3     1  ZINC000588570917   -0.0900
      5 C5         -6.8097    0.9180   50.9918 C.3     1  ZINC000588570917   -0.1500
      6 C6         -8.7413    1.5502   53.6653 C.2     1  ZINC000588570917    0.5600
      7 O7         -9.7767    1.9893   54.1281 O.2     1  ZINC000588570917   -0.5100
      8 N8         -8.2695    0.3581   54.0808 N.am    1  ZINC000588570917   -0.6800
      9 C9         -8.9705   -0.3741   55.0441 C.ar    1  ZINC000588570917    0.2100
     10 C10        -9.7694   -1.4434   54.6603 C.ar    1  ZINC000588570917   -0.1700
     11 C11       -10.4599   -2.1648   55.6143 C.ar    1  ZINC000588570917    0.0000
     12 C12       -10.3566   -1.8234   56.9504 C.ar    1  ZINC000588570917   -0.7000
     13 S13       -11.2393   -2.7464   58.1643 S.o2    1  ZINC000588570917    2.6900
     14 O14       -11.3168   -4.0791   57.6772 O.2     1  ZINC000588570917   -0.9500
     15 O15       -10.6653   -2.4100   59.4199 O.2     1  ZINC000588570917   -0.9500
     16 N16       -12.7904   -2.1666   58.1889 N.am    1  ZINC000588570917   -1.0000
     17 C17       -13.9327   -3.0469   57.8965 C.3     1  ZINC000588570917    0.0900
     18 C18       -14.9665   -2.8857   59.0170 C.3     1  ZINC000588570917    0.0700
     19 H19       -14.5629   -3.2895   59.9455 H       1  ZINC000588570917    0.0700
     20 C20       -16.2449   -3.6395   58.6451 C.3     1  ZINC000588570917   -0.1500
     21 O21       -15.2622   -1.4976   59.1885 O.3     1  ZINC000588570917   -0.3700
     22 C22       -14.1428   -0.7067   59.5952 C.3     1  ZINC000588570917    0.0800
     23 H23       -14.4614    0.3248   59.7457 H       1  ZINC000588570917    0.1200
     24 C24       -13.5729   -1.2616   60.9021 C.3     1  ZINC000588570917   -0.1900
     25 C25       -13.0674   -0.7576   58.5098 C.3     1  ZINC000588570917    0.0900
     26 C26        -9.5617   -0.7596   57.3359 C.ar    1  ZINC000588570917    0.0000
     27 C27        -8.8647   -0.0372   56.3874 C.ar    1  ZINC000588570917   -0.1400
     28 H28        -8.3675    5.0861   50.8093 H       1  ZINC000588570917    0.0600
     29 H29        -6.8280    4.5497   51.5235 H       1  ZINC000588570917    0.0800
     30 H30        -7.5931    3.5902   50.2343 H       1  ZINC000588570917    0.0800
     31 H31        -9.5078    3.7618   52.4718 H       1  ZINC000588570917    0.1300
     32 H32        -6.0458    2.7152   51.9013 H       1  ZINC000588570917    0.0700
     33 H33        -6.1512    1.3211   53.0029 H       1  ZINC000588570917    0.0800
     34 H34        -7.3057    1.4506   50.1803 H       1  ZINC000588570917    0.0500
     35 H35        -5.8284    0.5805   50.6585 H       1  ZINC000588570917    0.0600
     36 H36        -7.4111    0.0564   51.2819 H       1  ZINC000588570917    0.0600
     37 H37        -7.4438    0.0079   53.7116 H       1  ZINC000588570917    0.4100
     38 H38        -9.8509   -1.7103   53.6169 H       1  ZINC000588570917    0.1400
     39 H39       -11.0816   -2.9962   55.3165 H       1  ZINC000588570917    0.1400
     40 H40       -14.3785   -2.7652   56.9426 H       1  ZINC000588570917    0.0900
     41 H41       -13.5965   -4.0828   57.8535 H       1  ZINC000588570917    0.1000
     42 H42       -16.0172   -4.6969   58.5107 H       1  ZINC000588570917    0.0700
     43 H43       -16.9795   -3.5245   59.4422 H       1  ZINC000588570917    0.0700
     44 H44       -16.6490   -3.2341   57.7174 H       1  ZINC000588570917    0.0700
     45 H45       -13.2529   -2.2924   60.7503 H       1  ZINC000588570917    0.0600
     46 H46       -12.7196   -0.6581   61.2115 H       1  ZINC000588570917    0.0700
     47 H47       -14.3401   -1.2295   61.6757 H       1  ZINC000588570917    0.0700
     48 H48       -12.1585   -0.2762   58.8708 H       1  ZINC000588570917    0.1000
     49 H49       -13.4237   -0.2463   57.6156 H       1  ZINC000588570917    0.0900
     50 H50        -9.4831   -0.4956   58.3802 H       1  ZINC000588570917    0.1400
     51 H51        -8.2437    0.7933   56.6892 H       1  ZINC000588570917    0.1500
@<TRIPOS>BOND
     1     1     2    1
     2     1    28    1
     3     1    29    1
     4     1    30    1
     5     2     3    2
     6     2    31    1
     7     3     4    1
     8     3     6    1
     9     4     5    1
    10     4    32    1
    11     4    33    1
    12     5    34    1
    13     5    35    1
    14     5    36    1
    15     6     7    2
    16     6     8   am
    17     8     9    1
    18     8    37    1
    19     9    27   ar
    20     9    10   ar
    21    10    11   ar
    22    10    38    1
    23    11    12   ar
    24    11    39    1
    25    12    13    1
    26    12    26   ar
    27    13    14    2
    28    13    15    2
    29    13    16   am
    30    16    25    1
    31    16    17    1
    32    17    18    1
    33    17    40    1
    34    17    41    1
    35    18    19    1
    36    18    20    1
    37    18    21    1
    38    20    42    1
    39    20    43    1
    40    20    44    1
    41    21    22    1
    42    22    23    1
    43    22    24    1
    44    22    25    1
    45    24    45    1
    46    24    46    1
    47    24    47    1
    48    25    48    1
    49    25    49    1
    50    26    27   ar
    51    26    50    1
    52    27    51    1
@<TRIPOS>SUBSTRUCTURE
     1 ZINC000588570917        1 TEMP              0 ****  ****    0 ROOT


##########                                Name:    ZINC000460163972
##########                DOCK_Rotatable_Bonds:                   7
##########                         Heavy_Atoms:                  28
##########                    Molecular_Weight:             408.469
##########                DOCK_Rotatable_Bonds:                   7
##########                       Formal_Charge:          -0.0100001
##########                     HBond_Acceptors:                   8
##########                        HBond_Donors:                   2
##########                         Heavy_Atoms:                  28
##########                          Grid_Score:          -29.813633
##########                     Grid_vdw_energy:          -29.722717
##########                      Grid_es_energy:           -0.090915
##########           Internal_energy_repulsive:           52.000305

@<TRIPOS>MOLECULE
ZINC000460163972
 50 52 1 0 0
SMALL
USER_CHARGES


@<TRIPOS>ATOM
      1 C1        -10.8539   -3.2199   57.6224 C.3     1  ZINC000460163972   -0.1400
      2 C2        -10.0486   -2.0819   57.0504 C.ar    1  ZINC000460163972    0.0100
      3 C3         -9.9704   -1.9124   55.6804 C.ar    1  ZINC000460163972   -0.1300
      4 C4         -9.2330   -0.8702   55.1529 C.ar    1  ZINC000460163972   -0.0600
      5 C5         -8.5702    0.0077   56.0000 C.ar    1  ZINC000460163972    0.1100
      6 N6         -7.8227    1.0647   55.4688 N.am    1  ZINC000460163972   -0.6700
      7 C7         -8.4489    2.1483   54.9686 C.2     1  ZINC000460163972    0.5200
      8 O8         -9.6603    2.2073   54.9788 O.2     1  ZINC000460163972   -0.5100
      9 C9         -7.6439    3.2866   54.3965 C.3     1  ZINC000460163972   -0.0700
     10 H10        -8.3093    4.1137   54.1489 H       1  ZINC000460163972    0.1200
     11 C11        -6.6141    3.7518   55.4280 C.3     1  ZINC000460163972   -0.1500
     12 C12        -6.9335    2.8233   53.1509 C.ar    1  ZINC000460163972   -0.0600
     13 C13        -5.7752    3.4562   52.7410 C.ar    1  ZINC000460163972   -0.0700
     14 C14        -5.1216    3.0330   51.5985 C.ar    1  ZINC000460163972   -0.1200
     15 C15        -5.6268    1.9745   50.8644 C.ar    1  ZINC000460163972    0.0700
     16 F16        -4.9885    1.5599   49.7481 F       1  ZINC000460163972   -0.1300
     17 C17        -6.7889    1.3391   51.2760 C.ar    1  ZINC000460163972    0.0700
     18 F18        -7.2841    0.3053   50.5609 F       1  ZINC000460163972   -0.1300
     19 C19        -7.4379    1.7620   52.4225 C.ar    1  ZINC000460163972   -0.1200
     20 C20        -8.6510   -0.1650   57.3758 C.ar    1  ZINC000460163972    0.0000
     21 C21        -7.9335    0.7859   58.2989 C.3     1  ZINC000460163972   -0.1500
     22 C22        -9.3937   -1.2060   57.8970 C.ar    1  ZINC000460163972   -0.6700
     23 S23        -9.4974   -1.4257   59.6421 S.o2    1  ZINC000460163972    2.7000
     24 O24        -8.6448   -2.5169   59.9606 O.2     1  ZINC000460163972   -0.9500
     25 O25        -9.3554   -0.1345   60.2182 O.2     1  ZINC000460163972   -0.9500
     26 N26       -11.0400   -1.9226   59.9827 N.am    1  ZINC000460163972   -1.0900
     27 C27       -12.1786   -1.0714   59.6293 C.3     1  ZINC000460163972    0.0800
     28 C28       -13.5015   -1.3236   60.3556 C.3     1  ZINC000460163972   -0.1800
     29 C29       -12.6735   -0.0797   60.6841 C.3     1  ZINC000460163972   -0.1900
     30 H30       -11.8527   -2.8658   57.8780 H       1  ZINC000460163972    0.1000
     31 H31       -10.9294   -4.0187   56.8845 H       1  ZINC000460163972    0.0800
     32 H32       -10.3624   -3.5984   58.5186 H       1  ZINC000460163972    0.0700
     33 H33       -10.4862   -2.5956   55.0220 H       1  ZINC000460163972    0.1400
     34 H34        -9.1718   -0.7388   54.0826 H       1  ZINC000460163972    0.1600
     35 H35        -6.8539    1.0176   55.4606 H       1  ZINC000460163972    0.4100
     36 H36        -6.0319    4.5752   55.0142 H       1  ZINC000460163972    0.0800
     37 H37        -7.1280    4.0870   56.3289 H       1  ZINC000460163972    0.0700
     38 H38        -5.9487    2.9248   55.6756 H       1  ZINC000460163972    0.0700
     39 H39        -5.3804    4.2825   53.3135 H       1  ZINC000460163972    0.1400
     40 H40        -4.2170    3.5288   51.2789 H       1  ZINC000460163972    0.1500
     41 H41        -8.3428    1.2678   52.7443 H       1  ZINC000460163972    0.1500
     42 H42        -8.6286    1.5515   58.6436 H       1  ZINC000460163972    0.1000
     43 H43        -7.5443    0.2362   59.1558 H       1  ZINC000460163972    0.1000
     44 H44        -7.1087    1.2579   57.7649 H       1  ZINC000460163972    0.0700
     45 H45       -11.1895   -2.7774   60.4163 H       1  ZINC000460163972    0.4200
     46 H46       -12.2284   -0.7623   58.5852 H       1  ZINC000460163972    0.1300
     47 H47       -14.4218   -1.1805   59.7893 H       1  ZINC000460163972    0.1100
     48 H48       -13.5245   -2.1229   61.0963 H       1  ZINC000460163972    0.1000
     49 H49       -12.1517   -0.0606   61.6409 H       1  ZINC000460163972    0.1000
     50 H50       -13.0490    0.8819   60.3338 H       1  ZINC000460163972    0.1000
@<TRIPOS>BOND
     1     1     2    1
     2     1    30    1
     3     1    31    1
     4     1    32    1
     5     2    22   ar
     6     2     3   ar
     7     3     4   ar
     8     3    33    1
     9     4     5   ar
    10     4    34    1
    11     5     6    1
    12     5    20   ar
    13     6     7   am
    14     6    35    1
    15     7     8    2
    16     7     9    1
    17     9    10    1
    18     9    11    1
    19     9    12    1
    20    11    36    1
    21    11    37    1
    22    11    38    1
    23    12    19   ar
    24    12    13   ar
    25    13    14   ar
    26    13    39    1
    27    14    15   ar
    28    14    40    1
    29    15    16    1
    30    15    17   ar
    31    17    18    1
    32    17    19   ar
    33    19    41    1
    34    20    21    1
    35    20    22   ar
    36    21    42    1
    37    21    43    1
    38    21    44    1
    39    22    23    1
    40    23    24    2
    41    23    25    2
    42    23    26   am
    43    26    27    1
    44    26    45    1
    45    27    29    1
    46    27    28    1
    47    27    46    1
    48    28    29    1
    49    28    47    1
    50    28    48    1
    51    29    49    1
    52    29    50    1
@<TRIPOS>SUBSTRUCTURE
     1 ZINC000460163972        1 TEMP              0 ****  ****    0 ROOT


##########                                Name:    ZINC000347662449
##########                DOCK_Rotatable_Bonds:                   5
##########                         Heavy_Atoms:                  23
##########                    Molecular_Weight:              327.45
##########                DOCK_Rotatable_Bonds:                   5
##########                       Formal_Charge:                0.03
##########                     HBond_Acceptors:                   5
##########                        HBond_Donors:                   0
##########                         Heavy_Atoms:                  23
##########                          Grid_Score:          -29.809477
##########                     Grid_vdw_energy:          -28.541182
##########                      Grid_es_energy:           -1.268296
##########           Internal_energy_repulsive:            3.770404

@<TRIPOS>MOLECULE
ZINC000347662449
 44 46 1 0 0
SMALL
USER_CHARGES


@<TRIPOS>ATOM
      1 C1         -8.1735    0.0442   62.9727 C.2     1  ZINC000347662449   -0.1800
      2 C2         -8.5544    0.4523   61.7875 C.2     1  ZINC000347662449   -0.1700
      3 C3         -8.4154   -0.4598   60.5960 C.3     1  ZINC000347662449    0.1600
      4 N4         -8.3370    0.3431   59.3730 N.am    1  ZINC000347662449   -0.6200
      5 C5         -7.7915    1.7041   59.3095 C.3     1  ZINC000347662449    0.1100
      6 C6         -7.5117    1.9665   57.8130 C.3     1  ZINC000347662449   -0.1100
      7 C7         -8.5140    1.0061   57.1318 C.3     1  ZINC000347662449   -0.1200
      8 H8         -9.4431    1.5265   56.8992 H       1  ZINC000347662449    0.1400
      9 S9         -7.7927    0.2988   55.6299 S.3     1  ZINC000347662449    0.0300
     10 C10        -9.1937    0.3533   54.5627 C.2     1  ZINC000347662449    0.1900
     11 N11       -10.4404    0.1507   54.9205 N.2     1  ZINC000347662449   -0.4500
     12 C12       -11.2377    0.2723   53.8457 C.2     1  ZINC000347662449   -0.0100
     13 C13       -10.4716    0.5599   52.7795 C.2     1  ZINC000347662449   -0.0400
     14 N14        -9.1684    0.6190   53.2252 N.pl3   1  ZINC000347662449   -0.4000
     15 C15        -8.0328    0.8920   52.4498 C.ar    1  ZINC000347662449    0.1100
     16 C16        -7.2633   -0.1507   51.9524 C.ar    1  ZINC000347662449   -0.1100
     17 C17        -6.1447    0.1213   51.1887 C.ar    1  ZINC000347662449   -0.1000
     18 C18        -5.7914    1.4306   50.9198 C.ar    1  ZINC000347662449   -0.0800
     19 C19        -4.5708    1.7241   50.0860 C.3     1  ZINC000347662449   -0.1200
     20 C20        -6.5560    2.4716   51.4141 C.ar    1  ZINC000347662449   -0.0700
     21 C21        -6.1675    3.8974   51.1187 C.3     1  ZINC000347662449   -0.1200
     22 C22        -7.6786    2.2058   52.1733 C.ar    1  ZINC000347662449   -0.1100
     23 C23        -8.7502   -0.0744   58.1640 C.2     1  ZINC000347662449    0.5300
     24 O24        -9.2469   -1.1569   57.9352 O.2     1  ZINC000347662449   -0.4900
     25 H25        -7.7598   -0.9459   63.0957 H       1  ZINC000347662449    0.1000
     26 H26        -8.2690    0.6994   63.8258 H       1  ZINC000347662449    0.1000
     27 H27        -8.9680    1.4423   61.6645 H       1  ZINC000347662449    0.1100
     28 H28        -7.5084   -1.0555   60.6982 H       1  ZINC000347662449    0.0900
     29 H29        -9.2802   -1.1210   60.5417 H       1  ZINC000347662449    0.0900
     30 H30        -8.5204    2.4206   59.6882 H       1  ZINC000347662449    0.0800
     31 H31        -6.8666    1.7669   59.8829 H       1  ZINC000347662449    0.0900
     32 H32        -7.7257    3.0029   57.5521 H       1  ZINC000347662449    0.1100
     33 H33        -6.4851    1.7051   57.5564 H       1  ZINC000347662449    0.0900
     34 H34       -12.3116    0.1583   53.8396 H       1  ZINC000347662449    0.1800
     35 H35       -10.8125    0.7180   51.7670 H       1  ZINC000347662449    0.1800
     36 H36        -7.5387   -1.1737   52.1623 H       1  ZINC000347662449    0.1300
     37 H37        -5.5455   -0.6896   50.8017 H       1  ZINC000347662449    0.1300
     38 H38        -4.8531    1.7757   49.0344 H       1  ZINC000347662449    0.0800
     39 H39        -4.1409    2.6772   50.3941 H       1  ZINC000347662449    0.0700
     40 H40        -3.8358    0.9315   50.2264 H       1  ZINC000347662449    0.0700
     41 H41        -6.6499    4.2219   50.1967 H       1  ZINC000347662449    0.0800
     42 H42        -6.4860    4.5386   51.9407 H       1  ZINC000347662449    0.0700
     43 H43        -5.0854    3.9630   51.0052 H       1  ZINC000347662449    0.0800
     44 H44        -8.2755    3.0190   52.5589 H       1  ZINC000347662449    0.1300
@<TRIPOS>BOND
     1     1     2    2
     2     1    25    1
     3     1    26    1
     4     2     3    1
     5     2    27    1
     6     3     4    1
     7     3    28    1
     8     3    29    1
     9     4    23   am
    10     4     5    1
    11     5     6    1
    12     5    30    1
    13     5    31    1
    14     6     7    1
    15     6    32    1
    16     6    33    1
    17     7     8    1
    18     7     9    1
    19     7    23    1
    20     9    10    1
    21    10    14    1
    22    10    11    2
    23    11    12    1
    24    12    13    2
    25    12    34    1
    26    13    14    1
    27    13    35    1
    28    14    15    1
    29    15    22   ar
    30    15    16   ar
    31    16    17   ar
    32    16    36    1
    33    17    18   ar
    34    17    37    1
    35    18    19    1
    36    18    20   ar
    37    19    38    1
    38    19    39    1
    39    19    40    1
    40    20    21    1
    41    20    22   ar
    42    21    41    1
    43    21    42    1
    44    21    43    1
    45    22    44    1
    46    23    24    2
@<TRIPOS>SUBSTRUCTURE
     1 ZINC000347662449        1 TEMP              0 ****  ****    0 ROOT


##########                                Name:    ZINC001085711660
##########                DOCK_Rotatable_Bonds:                   8
##########                         Heavy_Atoms:                  25
##########                    Molecular_Weight:             347.414
##########                DOCK_Rotatable_Bonds:                   8
##########                       Formal_Charge:         -0.00999993
##########                     HBond_Acceptors:                   7
##########                        HBond_Donors:                   0
##########                         Heavy_Atoms:                  25
##########                          Grid_Score:          -29.799913
##########                     Grid_vdw_energy:          -29.849096
##########                      Grid_es_energy:            0.049182
##########           Internal_energy_repulsive:           13.168585

@<TRIPOS>MOLECULE
ZINC001085711660
 50 52 1 0 0
SMALL
USER_CHARGES


@<TRIPOS>ATOM
      1 C1         -6.9545    2.6285   49.5385 C.3     1  ZINC001085711660    0.0300
      2 O2         -6.3809    3.4482   50.5589 O.3     1  ZINC001085711660   -0.3800
      3 C3         -5.5077    2.7462   51.4459 C.3     1  ZINC001085711660    0.1400
      4 C4         -6.2742    1.6531   52.1448 C.2     1  ZINC001085711660    0.0100
      5 C5         -6.3909    0.3766   51.7170 C.2     1  ZINC001085711660   -0.1900
      6 C6         -7.1826   -0.3030   52.6560 C.2     1  ZINC001085711660   -0.1200
      7 C7         -7.5130    0.6046   53.6211 C.2     1  ZINC001085711660   -0.0700
      8 C8         -8.3341    0.3408   54.8072 C.2     1  ZINC001085711660    0.6000
      9 O9         -7.8091    0.2392   55.9005 O.2     1  ZINC001085711660   -0.5200
     10 N10        -9.6702    0.2108   54.6866 N.am    1  ZINC001085711660   -0.6000
     11 C11       -10.3022    0.3329   53.3706 C.3     1  ZINC001085711660    0.0700
     12 C12       -10.4905   -0.0528   55.8716 C.3     1  ZINC001085711660    0.1300
     13 C13       -10.3562   -1.5245   56.2675 C.3     1  ZINC001085711660    0.0000
     14 H14        -9.3531   -1.9164   56.0994 H       1  ZINC001085711660    0.1000
     15 C15       -11.4654   -2.4163   55.6920 C.3     1  ZINC001085711660   -0.1400
     16 C16       -11.3945   -3.0960   57.0666 C.3     1  ZINC001085711660    0.0100
     17 N17       -10.8857   -1.8221   57.6115 N.3     1  ZINC001085711660   -0.4500
     18 C18        -9.7960   -2.0567   58.5682 C.3     1  ZINC001085711660    0.1500
     19 H19        -8.9384   -2.4803   58.0455 H       1  ZINC001085711660    0.1000
     20 C20       -10.2671   -3.0319   59.6490 C.3     1  ZINC001085711660   -0.1900
     21 C21        -9.3995   -0.7511   59.2080 C.2     1  ZINC001085711660    0.2000
     22 N22        -8.1849   -0.2897   59.3008 N.2     1  ZINC001085711660   -0.4700
     23 C23        -8.2217    0.8976   59.9310 C.2     1  ZINC001085711660   -0.0400
     24 C24        -9.5047    1.1616   60.2289 C.2     1  ZINC001085711660   -0.0500
     25 C25       -10.0257    2.3852   60.9376 C.3     1  ZINC001085711660   -0.0700
     26 O26       -10.2388    0.1290   59.7699 O.3     1  ZINC001085711660   -0.2000
     27 O27        -6.9474    1.7853   53.2951 O.3     1  ZINC001085711660   -0.1500
     28 H28        -6.1599    2.1950   48.9313 H       1  ZINC001085711660    0.0500
     29 H29        -7.5370    1.8301   49.9984 H       1  ZINC001085711660    0.0500
     30 H30        -7.6042    3.2351   48.9075 H       1  ZINC001085711660    0.0900
     31 H31        -4.6874    2.3084   50.8773 H       1  ZINC001085711660    0.0900
     32 H32        -5.1075    3.4395   52.1858 H       1  ZINC001085711660    0.0700
     33 H33        -5.9567   -0.0420   50.8211 H       1  ZINC001085711660    0.1600
     34 H34        -7.4740   -1.3424   52.6216 H       1  ZINC001085711660    0.1600
     35 H35       -10.2490   -0.6242   52.8518 H       1  ZINC001085711660    0.0600
     36 H36       -11.3459    0.6217   53.4942 H       1  ZINC001085711660    0.0900
     37 H37        -9.7818    1.0921   52.7867 H       1  ZINC001085711660    0.0800
     38 H38       -10.1529    0.5771   56.6945 H       1  ZINC001085711660    0.0900
     39 H39       -11.5338    0.1696   55.6480 H       1  ZINC001085711660    0.0900
     40 H40       -12.4029   -1.8945   55.4999 H       1  ZINC001085711660    0.1000
     41 H41       -11.1451   -3.0489   54.8642 H       1  ZINC001085711660    0.0800
     42 H42       -12.3701   -3.3791   57.4618 H       1  ZINC001085711660    0.0900
     43 H43       -10.6685   -3.9077   57.1127 H       1  ZINC001085711660    0.0800
     44 H44       -11.1881   -2.6597   60.0976 H       1  ZINC001085711660    0.0800
     45 H45       -10.4497   -4.0090   59.2020 H       1  ZINC001085711660    0.0800
     46 H46        -9.4991   -3.1215   60.4172 H       1  ZINC001085711660    0.0700
     47 H47        -7.3727    1.5257   60.1573 H       1  ZINC001085711660    0.1800
     48 H48       -10.2629    3.1562   60.2046 H       1  ZINC001085711660    0.0800
     49 H49       -10.9250    2.1262   61.4964 H       1  ZINC001085711660    0.0800
     50 H50        -9.2661    2.7583   61.6245 H       1  ZINC001085711660    0.0900
@<TRIPOS>BOND
     1     1     2    1
     2     1    28    1
     3     1    29    1
     4     1    30    1
     5     2     3    1
     6     3     4    1
     7     3    31    1
     8     3    32    1
     9     4    27    1
    10     4     5    2
    11     5     6    1
    12     5    33    1
    13     6     7    2
    14     6    34    1
    15     7     8    1
    16     7    27    1
    17     8     9    2
    18     8    10   am
    19    10    11    1
    20    10    12    1
    21    11    35    1
    22    11    36    1
    23    11    37    1
    24    12    13    1
    25    12    38    1
    26    12    39    1
    27    13    14    1
    28    13    17    1
    29    13    15    1
    30    15    16    1
    31    15    40    1
    32    15    41    1
    33    16    17    1
    34    16    42    1
    35    16    43    1
    36    17    18    1
    37    18    19    1
    38    18    20    1
    39    18    21    1
    40    20    44    1
    41    20    45    1
    42    20    46    1
    43    21    26    1
    44    21    22    2
    45    22    23    1
    46    23    24    2
    47    23    47    1
    48    24    25    1
    49    24    26    1
    50    25    48    1
    51    25    49    1
    52    25    50    1
@<TRIPOS>SUBSTRUCTURE
     1 ZINC001085711660        1 TEMP              0 ****  ****    0 ROOT


##########                                Name:    ZINC000650955167
##########                DOCK_Rotatable_Bonds:                   9
##########                         Heavy_Atoms:                  26
##########                    Molecular_Weight:             361.484
##########                DOCK_Rotatable_Bonds:                   9
##########                       Formal_Charge:        -7.07805e-07
##########                     HBond_Acceptors:                   6
##########                        HBond_Donors:                   2
##########                         Heavy_Atoms:                  26
##########                          Grid_Score:          -29.786121
##########                     Grid_vdw_energy:          -29.329567
##########                      Grid_es_energy:           -0.456554
##########           Internal_energy_repulsive:           16.207663

@<TRIPOS>MOLECULE
ZINC000650955167
 57 59 1 0 0
SMALL
USER_CHARGES


@<TRIPOS>ATOM
      1 C1        -10.5085   -2.5074   55.4002 C.3     1  ZINC000650955167    0.0200
      2 O2        -10.3538   -3.0644   56.7071 O.3     1  ZINC000650955167   -0.3200
      3 C3        -11.3858   -2.8971   57.5753 C.ar    1  ZINC000650955167    0.1300
      4 C4        -12.6764   -3.2324   57.1932 C.ar    1  ZINC000650955167   -0.2000
      5 C5        -13.7239   -3.0618   58.0780 C.ar    1  ZINC000650955167   -0.0800
      6 C6        -13.4866   -2.5569   59.3428 C.ar    1  ZINC000650955167   -0.1500
      7 C7        -12.2009   -2.2213   59.7260 C.ar    1  ZINC000650955167   -0.0800
      8 C8        -11.1495   -2.3958   58.8473 C.ar    1  ZINC000650955167   -0.1100
      9 C9         -9.7486   -2.0305   59.2656 C.3     1  ZINC000650955167   -0.0800
     10 C10        -9.5909   -0.5088   59.2459 C.3     1  ZINC000650955167    0.1800
     11 H11       -10.5695   -0.0407   59.3516 H       1  ZINC000650955167    0.0900
     12 N12        -8.9871   -0.0969   57.9761 N.am    1  ZINC000650955167   -0.7300
     13 C13        -9.5668    0.8691   57.2363 C.2     1  ZINC000650955167    0.7400
     14 O14       -10.5900    1.3998   57.6234 O.2     1  ZINC000650955167   -0.5800
     15 N15        -9.0123    1.2468   56.0674 N.am    1  ZINC000650955167   -0.6700
     16 C16        -9.3213    2.2286   55.0170 C.3     1  ZINC000650955167    0.1100
     17 C17        -8.5835    1.3187   54.0251 C.3     1  ZINC000650955167    0.0300
     18 N18        -7.7496    2.0384   53.0532 N.3     1  ZINC000650955167   -0.5100
     19 C19        -8.5691    2.9432   52.2192 C.3     1  ZINC000650955167    0.0400
     20 C20        -7.8791    2.9363   50.8323 C.3     1  ZINC000650955167   -0.1600
     21 C21        -7.4233    1.4580   50.7165 C.3     1  ZINC000650955167    0.0800
     22 H22        -8.2416    0.8286   50.3667 H       1  ZINC000650955167    0.0600
     23 O23        -6.2939    1.3440   49.8484 O.3     1  ZINC000650955167   -0.5600
     24 C24        -7.0395    1.0978   52.1672 C.3     1  ZINC000650955167    0.0500
     25 C25        -7.8280    0.8630   55.2843 C.3     1  ZINC000650955167    0.1400
     26 C26        -8.6899   -0.0743   60.4036 C.3     1  ZINC000650955167   -0.1100
     27 C27        -8.1113    1.3108   60.1074 C.3     1  ZINC000650955167   -0.1400
     28 C28        -9.5093   -0.0194   61.6946 C.3     1  ZINC000650955167   -0.1500
     29 H29        -9.6153   -2.7119   54.8099 H       1  ZINC000650955167    0.1000
     30 H30       -11.3754   -2.9555   54.9146 H       1  ZINC000650955167    0.0600
     31 H31       -10.6530   -1.4299   55.4793 H       1  ZINC000650955167    0.0600
     32 H32       -12.8624   -3.6263   56.2050 H       1  ZINC000650955167    0.1300
     33 H33       -14.7289   -3.3228   57.7810 H       1  ZINC000650955167    0.1200
     34 H34       -14.3067   -2.4239   60.0328 H       1  ZINC000650955167    0.1200
     35 H35       -12.0181   -1.8268   60.7145 H       1  ZINC000650955167    0.1300
     36 H36        -9.5617   -2.4020   60.2732 H       1  ZINC000650955167    0.0900
     37 H37        -9.0345   -2.4788   58.5748 H       1  ZINC000650955167    0.0800
     38 H38        -8.1702   -0.5195   57.6680 H       1  ZINC000650955167    0.4000
     39 H39       -10.3874    2.3219   54.8102 H       1  ZINC000650955167    0.0700
     40 H40        -8.8346    3.1923   55.1668 H       1  ZINC000650955167    0.0900
     41 H41        -9.2107    0.5519   53.5703 H       1  ZINC000650955167    0.0900
     42 H42        -9.5883    2.5652   52.1379 H       1  ZINC000650955167    0.0500
     43 H43        -8.5690    3.9495   52.6381 H       1  ZINC000650955167    0.0900
     44 H44        -8.5867    3.1898   50.0428 H       1  ZINC000650955167    0.0800
     45 H45        -7.0232    3.6110   50.8188 H       1  ZINC000650955167    0.0900
     46 H46        -5.9690    0.4394   49.7425 H       1  ZINC000650955167    0.3800
     47 H47        -5.9630    1.2015   52.3027 H       1  ZINC000650955167    0.0900
     48 H48        -7.3467    0.0757   52.3891 H       1  ZINC000650955167    0.0700
     49 H49        -6.9456    1.4643   55.5025 H       1  ZINC000650955167    0.0900
     50 H50        -7.6247   -0.2077   55.3049 H       1  ZINC000650955167    0.0800
     51 H51        -7.8766   -0.7906   60.5197 H       1  ZINC000650955167    0.0700
     52 H52        -8.9247    2.0272   59.9915 H       1  ZINC000650955167    0.0600
     53 H53        -7.4695    1.6204   60.9324 H       1  ZINC000650955167    0.0400
     54 H54        -7.5277    1.2717   59.1878 H       1  ZINC000650955167    0.0500
     55 H55        -9.9215   -1.0061   61.9055 H       1  ZINC000650955167    0.0600
     56 H56        -8.8675    0.2901   62.5194 H       1  ZINC000650955167    0.0600
     57 H57       -10.3227    0.6969   61.5785 H       1  ZINC000650955167    0.0600
@<TRIPOS>BOND
     1     1     2    1
     2     1    29    1
     3     1    30    1
     4     1    31    1
     5     2     3    1
     6     3     8   ar
     7     3     4   ar
     8     4     5   ar
     9     4    32    1
    10     5     6   ar
    11     5    33    1
    12     6     7   ar
    13     6    34    1
    14     7     8   ar
    15     7    35    1
    16     8     9    1
    17     9    10    1
    18     9    36    1
    19     9    37    1
    20    10    11    1
    21    10    12    1
    22    10    26    1
    23    12    13   am
    24    12    38    1
    25    13    14    2
    26    13    15   am
    27    15    25    1
    28    15    16    1
    29    16    17    1
    30    16    39    1
    31    16    40    1
    32    17    18    1
    33    17    25    1
    34    17    41    1
    35    18    24    1
    36    18    19    1
    37    19    20    1
    38    19    42    1
    39    19    43    1
    40    20    21    1
    41    20    44    1
    42    20    45    1
    43    21    22    1
    44    21    23    1
    45    21    24    1
    46    23    46    1
    47    24    47    1
    48    24    48    1
    49    25    49    1
    50    25    50    1
    51    26    27    1
    52    26    28    1
    53    26    51    1
    54    27    52    1
    55    27    53    1
    56    27    54    1
    57    28    55    1
    58    28    56    1
    59    28    57    1
@<TRIPOS>SUBSTRUCTURE
     1 ZINC000650955167        1 TEMP              0 ****  ****    0 ROOT


##########                                Name:    ZINC000892389374
##########                DOCK_Rotatable_Bonds:                   6
##########                         Heavy_Atoms:                  25
##########                    Molecular_Weight:             371.383
##########                DOCK_Rotatable_Bonds:                   6
##########                       Formal_Charge:          -0.0199998
##########                     HBond_Acceptors:                   9
##########                        HBond_Donors:                   1
##########                         Heavy_Atoms:                  25
##########                          Grid_Score:          -29.777601
##########                     Grid_vdw_energy:          -29.767485
##########                      Grid_es_energy:           -0.010117
##########           Internal_energy_repulsive:            9.327413

@<TRIPOS>MOLECULE
ZINC000892389374
 41 43 1 0 0
SMALL
USER_CHARGES


@<TRIPOS>ATOM
      1 C1         -9.7718   -3.2016   59.4174 C.3     1  ZINC000892389374   -0.1000
      2 C2         -9.7837   -2.4774   58.0958 C.ar    1  ZINC000892389374   -0.1800
      3 C3        -10.1886   -3.1366   56.9515 C.ar    1  ZINC000892389374   -0.0400
      4 C4        -10.2014   -2.4760   55.7379 C.ar    1  ZINC000892389374   -0.2100
      5 C5         -9.8064   -1.1463   55.6649 C.ar    1  ZINC000892389374    0.2200
      6 N6         -9.8197   -0.4782   54.4352 N.am    1  ZINC000892389374   -0.5700
      7 C7         -8.6442   -0.2184   53.5901 C.3     1  ZINC000892389374    0.0600
      8 C8         -9.2233    0.5357   52.3776 C.3     1  ZINC000892389374    0.0400
      9 O9        -10.6494    0.6209   52.6634 O.3     1  ZINC000892389374   -0.3200
     10 C10       -10.9064    0.0240   53.8329 C.2     1  ZINC000892389374    0.6400
     11 O11       -12.0218   -0.0484   54.3096 O.2     1  ZINC000892389374   -0.5000
     12 C12        -9.3992   -0.4809   56.8123 C.ar    1  ZINC000892389374   -0.2300
     13 C13        -9.3928   -1.1452   58.0306 C.ar    1  ZINC000892389374    0.2400
     14 N14        -8.9835   -0.4792   59.1880 N.pl3   1  ZINC000892389374   -0.7400
     15 C15        -9.9733    0.1843   60.0402 C.3     1  ZINC000892389374    0.2000
     16 C16        -9.4020    0.3710   61.4221 C.2     1  ZINC000892389374   -0.2400
     17 C17        -8.3900   -0.3207   61.9545 C.2     1  ZINC000892389374    0.0600
     18 N18        -8.0745    0.0316   63.1845 N.2     1  ZINC000892389374   -0.4500
     19 C19        -8.7640    0.9821   63.7193 C.2     1  ZINC000892389374    0.0200
     20 C20        -8.5544    1.5224   65.1104 C.3     1  ZINC000892389374   -0.0900
     21 C21        -7.8835    0.4543   65.9765 C.3     1  ZINC000892389374    0.4600
     22 F22        -8.7038   -0.6772   66.0405 F       1  ZINC000892389374   -0.1800
     23 F23        -6.6506    0.1054   65.4151 F       1  ZINC000892389374   -0.1800
     24 F24        -7.6827    0.9582   67.2661 F       1  ZINC000892389374   -0.1700
     25 S25        -9.9451    1.5448   62.6186 S.3     1  ZINC000892389374    0.1900
     26 H26       -10.7392   -3.0831   59.9054 H       1  ZINC000892389374    0.0700
     27 H27        -9.5768   -4.2608   59.2496 H       1  ZINC000892389374    0.0700
     28 H28        -8.9907   -2.7845   60.0532 H       1  ZINC000892389374    0.0600
     29 H29       -10.4955   -4.1707   57.0053 H       1  ZINC000892389374    0.1300
     30 H30       -10.5185   -2.9943   54.8450 H       1  ZINC000892389374    0.1200
     31 H31        -7.9225    0.4041   54.1191 H       1  ZINC000892389374    0.1000
     32 H32        -8.1848   -1.1552   53.2748 H       1  ZINC000892389374    0.1000
     33 H33        -8.7882    1.5324   52.3039 H       1  ZINC000892389374    0.1100
     34 H34        -9.0505   -0.0265   51.4599 H       1  ZINC000892389374    0.1100
     35 H35        -9.0913    0.5529   56.7579 H       1  ZINC000892389374    0.1600
     36 H36        -8.0438   -0.4560   59.4277 H       1  ZINC000892389374    0.4000
     37 H37       -10.2242    1.1567   59.6163 H       1  ZINC000892389374    0.0900
     38 H38       -10.8723   -0.4294   60.0986 H       1  ZINC000892389374    0.0800
     39 H39        -7.8731   -1.1043   61.4204 H       1  ZINC000892389374    0.1800
     40 H40        -7.9176    2.4059   65.0649 H       1  ZINC000892389374    0.1300
     41 H41        -9.5172    1.7906   65.5452 H       1  ZINC000892389374    0.1400
@<TRIPOS>BOND
     1     1     2    1
     2     1    26    1
     3     1    27    1
     4     1    28    1
     5     2    13   ar
     6     2     3   ar
     7     3     4   ar
     8     3    29    1
     9     4     5   ar
    10     4    30    1
    11     5     6    1
    12     5    12   ar
    13     6    10   am
    14     6     7    1
    15     7     8    1
    16     7    31    1
    17     7    32    1
    18     8     9    1
    19     8    33    1
    20     8    34    1
    21     9    10    1
    22    10    11    2
    23    12    13   ar
    24    12    35    1
    25    13    14    1
    26    14    15    1
    27    14    36    1
    28    15    16    1
    29    15    37    1
    30    15    38    1
    31    16    25    1
    32    16    17    2
    33    17    18    1
    34    17    39    1
    35    18    19    2
    36    19    20    1
    37    19    25    1
    38    20    21    1
    39    20    40    1
    40    20    41    1
    41    21    22    1
    42    21    23    1
    43    21    24    1
@<TRIPOS>SUBSTRUCTURE
     1 ZINC000892389374        1 TEMP              0 ****  ****    0 ROOT


##########                                Name:    ZINC000523863446
##########                DOCK_Rotatable_Bonds:                  10
##########                         Heavy_Atoms:                  29
##########                    Molecular_Weight:             396.533
##########                DOCK_Rotatable_Bonds:                  10
##########                       Formal_Charge:          -0.0200008
##########                     HBond_Acceptors:                   6
##########                        HBond_Donors:                   1
##########                         Heavy_Atoms:                  29
##########                          Grid_Score:          -29.760403
##########                     Grid_vdw_energy:          -28.971992
##########                      Grid_es_energy:           -0.788411
##########           Internal_energy_repulsive:           17.508577

@<TRIPOS>MOLECULE
ZINC000523863446
 61 63 1 0 0
SMALL
USER_CHARGES


@<TRIPOS>ATOM
      1 C1        -11.4964   -0.0677   60.7065 C.3     1  ZINC000523863446   -0.1700
      2 C2        -10.0519    0.4342   60.6541 C.3     1  ZINC000523863446    0.1500
      3 H3         -9.4777   -0.1830   59.9631 H       1  ZINC000523863446    0.1300
      4 C4        -10.0342    1.8655   60.1827 C.2     1  ZINC000523863446    0.5100
      5 O5        -10.9476    2.6098   60.4700 O.2     1  ZINC000523863446   -0.5100
      6 N6         -9.0035    2.3182   59.4417 N.am    1  ZINC000523863446   -0.6000
      7 C7         -8.9854    3.7100   58.9849 C.3     1  ZINC000523863446    0.0700
      8 C8         -7.9011    1.4183   59.0931 C.3     1  ZINC000523863446    0.1000
      9 C9         -8.3000    0.5687   57.9141 C.2     1  ZINC000523863446    0.5000
     10 O10        -8.1439   -0.6335   57.9524 O.2     1  ZINC000523863446   -0.5200
     11 N11        -8.8300    1.1447   56.8170 N.am    1  ZINC000523863446   -0.7200
     12 C12        -9.2193    0.3186   55.6715 C.3     1  ZINC000523863446    0.1900
     13 H13        -8.4937   -0.4840   55.5389 H       1  ZINC000523863446    0.1000
     14 C14        -9.2600    1.1829   54.4097 C.3     1  ZINC000523863446   -0.1200
     15 C15        -7.9226    1.0753   53.6744 C.3     1  ZINC000523863446   -0.0900
     16 C16        -8.0494    0.0675   52.5302 C.3     1  ZINC000523863446   -0.1200
     17 C17        -6.7120   -0.0402   51.7948 C.3     1  ZINC000523863446   -0.1200
     18 C18        -6.3296    1.3288   51.2287 C.3     1  ZINC000523863446   -0.1200
     19 C19        -6.2028    2.3365   52.3729 C.3     1  ZINC000523863446   -0.1200
     20 C20        -7.5402    2.4443   53.1082 C.3     1  ZINC000523863446   -0.1100
     21 C21       -10.5831   -0.2730   55.9193 C.ar    1  ZINC000523863446   -0.0900
     22 C22       -11.6620    0.5558   56.1640 C.ar    1  ZINC000523863446   -0.1100
     23 C23       -12.9129    0.0131   56.3912 C.ar    1  ZINC000523863446   -0.1200
     24 C24       -13.0849   -1.3584   56.3734 C.ar    1  ZINC000523863446   -0.1200
     25 C25       -12.0062   -2.1872   56.1277 C.ar    1  ZINC000523863446   -0.1200
     26 C26       -10.7562   -1.6443   55.8962 C.ar    1  ZINC000523863446   -0.1000
     27 N27        -9.4578    0.3529   61.9907 N.pl3   1  ZINC000523863446   -0.3600
     28 C28        -8.2400   -0.1463   62.2891 C.2     1  ZINC000523863446    0.0600
     29 C29        -8.0676   -0.0406   63.6272 C.2     1  ZINC000523863446   -0.2700
     30 C30        -9.2194    0.5429   64.1648 C.2     1  ZINC000523863446    0.0500
     31 N31       -10.0510    0.7848   63.1839 N.2     1  ZINC000523863446   -0.2900
     32 H32       -12.0706    0.5495   61.3975 H       1  ZINC000523863446    0.0700
     33 H33       -11.9383   -0.0072   59.7120 H       1  ZINC000523863446    0.1000
     34 H34       -11.5092   -1.1029   61.0474 H       1  ZINC000523863446    0.0800
     35 H35        -8.4854    4.3302   59.7288 H       1  ZINC000523863446    0.0700
     36 H36        -8.4491    3.7746   58.0381 H       1  ZINC000523863446    0.0800
     37 H37       -10.0083    4.0606   58.8476 H       1  ZINC000523863446    0.0800
     38 H38        -7.0199    2.0061   58.8358 H       1  ZINC000523863446    0.1100
     39 H39        -7.6738    0.7758   59.9437 H       1  ZINC000523863446    0.1100
     40 H40        -8.9536    2.1063   56.7858 H       1  ZINC000523863446    0.4000
     41 H41       -10.0620    0.8367   53.7577 H       1  ZINC000523863446    0.0800
     42 H42        -9.4397    2.2218   54.6865 H       1  ZINC000523863446    0.0700
     43 H43        -7.1519    0.7412   54.3690 H       1  ZINC000523863446    0.0700
     44 H44        -8.3218   -0.9077   52.9335 H       1  ZINC000523863446    0.0600
     45 H45        -8.8201    0.4016   51.8355 H       1  ZINC000523863446    0.0600
     46 H46        -5.9413   -0.3743   52.4895 H       1  ZINC000523863446    0.0600
     47 H47        -6.8023   -0.7582   50.9796 H       1  ZINC000523863446    0.0600
     48 H48        -5.3769    1.2520   50.7048 H       1  ZINC000523863446    0.0600
     49 H49        -7.1003    1.6629   50.5340 H       1  ZINC000523863446    0.0600
     50 H50        -5.4321    2.0024   53.0676 H       1  ZINC000523863446    0.0600
     51 H51        -5.9303    3.3118   51.9695 H       1  ZINC000523863446    0.0600
     52 H52        -8.3108    2.7783   52.4136 H       1  ZINC000523863446    0.0600
     53 H53        -7.4498    3.1622   53.9233 H       1  ZINC000523863446    0.0600
     54 H54       -11.5276    1.6273   56.1779 H       1  ZINC000523863446    0.1200
     55 H55       -13.7557    0.6606   56.5831 H       1  ZINC000523863446    0.1200
     56 H56       -14.0621   -1.7824   56.5516 H       1  ZINC000523863446    0.1200
     57 H57       -12.1405   -3.2587   56.1141 H       1  ZINC000523863446    0.1200
     58 H58        -9.9133   -2.2918   55.7044 H       1  ZINC000523863446    0.1200
     59 H59        -7.5304   -0.5567   61.5862 H       1  ZINC000523863446    0.1700
     60 H60        -7.1951   -0.3524   64.1820 H       1  ZINC000523863446    0.1500
     61 H61        -9.3908    0.7610   65.2086 H       1  ZINC000523863446    0.1800
@<TRIPOS>BOND
     1     1     2    1
     2     1    32    1
     3     1    33    1
     4     1    34    1
     5     2     3    1
     6     2     4    1
     7     2    27    1
     8     4     5    2
     9     4     6   am
    10     6     7    1
    11     6     8    1
    12     7    35    1
    13     7    36    1
    14     7    37    1
    15     8     9    1
    16     8    38    1
    17     8    39    1
    18     9    10    2
    19     9    11   am
    20    11    12    1
    21    11    40    1
    22    12    13    1
    23    12    14    1
    24    12    21    1
    25    14    15    1
    26    14    41    1
    27    14    42    1
    28    15    20    1
    29    15    16    1
    30    15    43    1
    31    16    17    1
    32    16    44    1
    33    16    45    1
    34    17    18    1
    35    17    46    1
    36    17    47    1
    37    18    19    1
    38    18    48    1
    39    18    49    1
    40    19    20    1
    41    19    50    1
    42    19    51    1
    43    20    52    1
    44    20    53    1
    45    21    26   ar
    46    21    22   ar
    47    22    23   ar
    48    22    54    1
    49    23    24   ar
    50    23    55    1
    51    24    25   ar
    52    24    56    1
    53    25    26   ar
    54    25    57    1
    55    26    58    1
    56    27    31    1
    57    27    28    1
    58    28    29    2
    59    28    59    1
    60    29    30    1
    61    29    60    1
    62    30    31    2
    63    30    61    1
@<TRIPOS>SUBSTRUCTURE
     1 ZINC000523863446        1 TEMP              0 ****  ****    0 ROOT


##########                                Name:    ZINC000563265674
##########                DOCK_Rotatable_Bonds:                   7
##########                         Heavy_Atoms:                  25
##########                    Molecular_Weight:             386.859
##########                DOCK_Rotatable_Bonds:                   7
##########                       Formal_Charge:          0.00999963
##########                     HBond_Acceptors:                  10
##########                        HBond_Donors:                   2
##########                         Heavy_Atoms:                  25
##########                          Grid_Score:          -29.758959
##########                     Grid_vdw_energy:          -28.796263
##########                      Grid_es_energy:           -0.962696
##########           Internal_energy_repulsive:           10.850718

@<TRIPOS>MOLECULE
ZINC000563265674
 44 45 1 0 0
SMALL
USER_CHARGES


@<TRIPOS>ATOM
      1 C1         -5.6657    0.6993   66.8739 C.3     1  ZINC000563265674   -0.0600
      2 C2         -7.0663    0.8112   66.3291 C.2     1  ZINC000563265674    0.1700
      3 N3         -8.0516   -0.0016   66.5682 N.2     1  ZINC000563265674   -0.3800
      4 O4         -9.0488    0.3636   65.9819 O.3     1  ZINC000563265674    0.0900
      5 C5         -8.7862    1.4777   65.2921 C.2     1  ZINC000563265674    0.1900
      6 C6         -9.7533    2.2497   64.4319 C.3     1  ZINC000563265674    0.2100
      7 C7        -10.9857    2.6222   65.2585 C.3     1  ZINC000563265674   -0.1400
      8 C8         -9.0773    3.5237   63.9216 C.3     1  ZINC000563265674   -0.1800
      9 N9        -10.1620    1.4210   63.2899 N.3     1  ZINC000563265674   -0.6600
     10 C10        -8.9971    0.7948   62.6502 C.3     1  ZINC000563265674    0.0400
     11 C11        -9.3015    0.5339   61.1976 C.2     1  ZINC000563265674    0.5200
     12 O12       -10.4099    0.7602   60.7601 O.2     1  ZINC000563265674   -0.4900
     13 N13        -8.3422    0.0491   60.3846 N.am    1  ZINC000563265674   -0.6700
     14 C14        -8.6250   -0.1933   59.0352 C.ar    1  ZINC000563265674    0.1400
     15 C15        -9.5115   -1.2008   58.6804 C.ar    1  ZINC000563265674   -0.0300
     16 C16        -9.7890   -1.4374   57.3478 C.ar    1  ZINC000563265674   -0.6400
     17 S17       -10.9146   -2.7159   56.8970 S.o2    1  ZINC000563265674    2.5000
     18 C18       -12.5421   -1.9149   56.9203 C.3     1  ZINC000563265674   -0.6500
     19 O19       -10.5450   -3.0556   55.5677 O.2     1  ZINC000563265674   -0.9300
     20 O20       -10.8099   -3.6628   57.9513 O.2     1  ZINC000563265674   -0.9300
     21 C21        -9.1849   -0.6723   56.3674 C.ar    1  ZINC000563265674   -0.0300
     22 C22        -8.3007    0.3322   56.7167 C.ar    1  ZINC000563265674   -0.1100
     23 C23        -8.0230    0.5779   58.0479 C.ar    1  ZINC000563265674   -0.0200
     24 Cl24       -6.9136    1.8392   58.4860 Cl      1  ZINC000563265674   -0.0500
     25 N25        -7.5275    1.7736   65.5107 N.2     1  ZINC000563265674   -0.4700
     26 H26        -5.6002    1.2353   67.8208 H       1  ZINC000563265674    0.0900
     27 H27        -5.4205   -0.3508   67.0330 H       1  ZINC000563265674    0.0900
     28 H28        -4.9632    1.1326   66.1618 H       1  ZINC000563265674    0.0900
     29 H29       -10.6825    3.2371   66.1059 H       1  ZINC000563265674    0.0800
     30 H30       -11.6853    3.1806   64.6364 H       1  ZINC000563265674    0.0800
     31 H31       -11.4673    1.7146   65.6221 H       1  ZINC000563265674    0.0700
     32 H32        -8.1993    3.2583   63.3327 H       1  ZINC000563265674    0.0700
     33 H33        -9.7768    4.0820   63.2994 H       1  ZINC000563265674    0.0800
     34 H34        -8.7740    4.1386   64.7690 H       1  ZINC000563265674    0.0800
     35 H35       -10.8373    0.7259   63.5708 H       1  ZINC000563265674    0.3600
     36 H36        -8.1382    1.4615   62.7274 H       1  ZINC000563265674    0.1200
     37 H37        -8.7715   -0.1476   63.1492 H       1  ZINC000563265674    0.0800
     38 H38        -7.4558   -0.1319   60.7344 H       1  ZINC000563265674    0.4200
     39 H39        -9.9837   -1.7994   59.4453 H       1  ZINC000563265674    0.1700
     40 H40       -12.5526   -1.0926   56.2049 H       1  ZINC000563265674    0.1300
     41 H41       -13.3085   -2.6413   56.6501 H       1  ZINC000563265674    0.1400
     42 H42       -12.7431   -1.5294   57.9199 H       1  ZINC000563265674    0.1400
     43 H43        -9.4037   -0.8596   55.3266 H       1  ZINC000563265674    0.1500
     44 H44        -7.8301    0.9280   55.9485 H       1  ZINC000563265674    0.1500
@<TRIPOS>BOND
     1     1     2    1
     2     1    26    1
     3     1    27    1
     4     1    28    1
     5     2    25    1
     6     2     3    2
     7     3     4    1
     8     4     5    1
     9     5     6    1
    10     5    25    2
    11     6     7    1
    12     6     8    1
    13     6     9    1
    14     7    29    1
    15     7    30    1
    16     7    31    1
    17     8    32    1
    18     8    33    1
    19     8    34    1
    20     9    10    1
    21     9    35    1
    22    10    11    1
    23    10    36    1
    24    10    37    1
    25    11    12    2
    26    11    13   am
    27    13    14    1
    28    13    38    1
    29    14    23   ar
    30    14    15   ar
    31    15    16   ar
    32    15    39    1
    33    16    17    1
    34    16    21   ar
    35    17    18    1
    36    17    19    2
    37    17    20    2
    38    18    40    1
    39    18    41    1
    40    18    42    1
    41    21    22   ar
    42    21    43    1
    43    22    23   ar
    44    22    44    1
    45    23    24    1
@<TRIPOS>SUBSTRUCTURE
     1 ZINC000563265674        1 TEMP              0 ****  ****    0 ROOT


##########                                Name:    ZINC001291841503
##########                DOCK_Rotatable_Bonds:                   7
##########                         Heavy_Atoms:                  28
##########                    Molecular_Weight:             397.544
##########                DOCK_Rotatable_Bonds:                   7
##########                       Formal_Charge:         -0.00999964
##########                     HBond_Acceptors:                   7
##########                        HBond_Donors:                   0
##########                         Heavy_Atoms:                  28
##########                          Grid_Score:          -29.756105
##########                     Grid_vdw_energy:          -29.068647
##########                      Grid_es_energy:           -0.687458
##########           Internal_energy_repulsive:           13.973454

@<TRIPOS>MOLECULE
ZINC001291841503
 55 58 1 0 0
SMALL
USER_CHARGES


@<TRIPOS>ATOM
      1 C1         -8.5463   -2.6592   59.6357 C.3     1  ZINC001291841503   -0.1500
      2 C2         -9.9172   -3.0549   59.0832 C.3     1  ZINC001291841503   -0.1100
      3 C3        -10.6378   -1.8083   58.5661 C.3     1  ZINC001291841503    0.0500
      4 H4        -10.3549   -0.9474   59.1719 H       1  ZINC001291841503    0.0900
      5 C5        -10.2488   -1.5622   57.1311 C.2     1  ZINC001291841503    0.2000
      6 N6        -10.0309   -2.4712   56.2234 N.2     1  ZINC001291841503   -0.2700
      7 N7         -9.7189   -1.9142   55.1079 N.2     1  ZINC001291841503   -0.3100
      8 C8         -9.7211   -0.6092   55.2452 C.2     1  ZINC001291841503    0.3600
      9 N9         -9.4341    0.3233   54.2610 N.3     1  ZINC001291841503   -0.4500
     10 C10        -8.0456    0.1916   53.7999 C.3     1  ZINC001291841503    0.0200
     11 C11       -10.3746    0.2100   53.1383 C.3     1  ZINC001291841503    0.0700
     12 H12       -10.2054   -0.7133   52.5843 H       1  ZINC001291841503    0.0800
     13 C13       -11.8431    0.2942   53.6369 C.3     1  ZINC001291841503   -0.1400
     14 C14       -12.5465    0.8732   52.3835 C.3     1  ZINC001291841503    0.0500
     15 O15       -11.6031    1.7962   51.8166 O.3     1  ZINC001291841503   -0.3800
     16 C16       -10.2689    1.4368   52.2070 C.3     1  ZINC001291841503    0.0600
     17 N17       -10.0649   -0.3436   56.5387 N.pl3   1  ZINC001291841503   -0.4700
     18 C18       -10.1996    0.9737   57.1655 C.3     1  ZINC001291841503    0.1900
     19 C19        -8.8403    1.4729   57.5829 C.2     1  ZINC001291841503   -0.2700
     20 C20        -8.1934    1.1459   58.7057 C.2     1  ZINC001291841503    0.0800
     21 N21        -7.0136    1.7169   58.8427 N.2     1  ZINC001291841503   -0.4800
     22 C22        -6.6294    2.5072   57.8980 C.2     1  ZINC001291841503    0.0500
     23 C23        -5.3181    3.2495   57.8743 C.3     1  ZINC001291841503   -0.0800
     24 S24        -7.8200    2.5848   56.6735 S.3     1  ZINC001291841503    0.1800
     25 C25       -12.1277   -2.0165   58.6541 C.ar    1  ZINC001291841503   -0.0900
     26 C26       -12.8848   -1.2393   59.5106 C.ar    1  ZINC001291841503   -0.0900
     27 C27       -14.2515   -1.4302   59.5913 C.ar    1  ZINC001291841503   -0.1200
     28 C28       -14.8612   -2.3980   58.8151 C.ar    1  ZINC001291841503   -0.1200
     29 C29       -14.1043   -3.1747   57.9580 C.ar    1  ZINC001291841503   -0.1200
     30 C30       -12.7381   -2.9808   57.8741 C.ar    1  ZINC001291841503   -0.1100
     31 H31        -7.9545   -2.1995   58.8441 H       1  ZINC001291841503    0.0500
     32 H32        -8.6749   -1.9488   60.4523 H       1  ZINC001291841503    0.0500
     33 H33        -8.0328   -3.5472   60.0041 H       1  ZINC001291841503    0.0600
     34 H34        -9.7885   -3.7652   58.2666 H       1  ZINC001291841503    0.0800
     35 H35       -10.5089   -3.5146   59.8748 H       1  ZINC001291841503    0.0800
     36 H36        -7.9163   -0.7719   53.3067 H       1  ZINC001291841503    0.0500
     37 H37        -7.8187    0.9930   53.0967 H       1  ZINC001291841503    0.0900
     38 H38        -7.3714    0.2560   54.6539 H       1  ZINC001291841503    0.0700
     39 H39       -12.2314   -0.6938   53.8841 H       1  ZINC001291841503    0.0900
     40 H40       -11.9316    0.9726   54.4854 H       1  ZINC001291841503    0.0800
     41 H41       -12.7701    0.0768   51.6735 H       1  ZINC001291841503    0.0700
     42 H42       -13.4605    1.3939   52.6692 H       1  ZINC001291841503    0.0900
     43 H43        -9.8044    2.2651   52.7423 H       1  ZINC001291841503    0.0800
     44 H44        -9.6794    1.1885   51.3244 H       1  ZINC001291841503    0.0700
     45 H45       -10.6400    1.6716   56.4533 H       1  ZINC001291841503    0.1100
     46 H46       -10.8427    0.8950   58.0420 H       1  ZINC001291841503    0.1100
     47 H47        -8.6038    0.4691   59.4405 H       1  ZINC001291841503    0.1700
     48 H48        -4.5619    2.6356   57.3847 H       1  ZINC001291841503    0.0900
     49 H49        -5.4390    4.1834   57.3256 H       1  ZINC001291841503    0.0800
     50 H50        -5.0046    3.4661   58.8956 H       1  ZINC001291841503    0.0900
     51 H51       -12.4085   -0.4831   60.1169 H       1  ZINC001291841503    0.1300
     52 H52       -14.8429   -0.8234   60.2610 H       1  ZINC001291841503    0.1200
     53 H53       -15.9289   -2.5478   58.8787 H       1  ZINC001291841503    0.1200
     54 H54       -14.5806   -3.9311   57.3518 H       1  ZINC001291841503    0.1200
     55 H55       -12.1467   -3.5876   57.2043 H       1  ZINC001291841503    0.1200
@<TRIPOS>BOND
     1     1     2    1
     2     1    31    1
     3     1    32    1
     4     1    33    1
     5     2     3    1
     6     2    34    1
     7     2    35    1
     8     3     4    1
     9     3     5    1
    10     3    25    1
    11     5    17    1
    12     5     6    2
    13     6     7    1
    14     7     8    2
    15     8     9    1
    16     8    17    1
    17     9    10    1
    18     9    11    1
    19    10    36    1
    20    10    37    1
    21    10    38    1
    22    11    12    1
    23    11    16    1
    24    11    13    1
    25    13    14    1
    26    13    39    1
    27    13    40    1
    28    14    15    1
    29    14    41    1
    30    14    42    1
    31    15    16    1
    32    16    43    1
    33    16    44    1
    34    17    18    1
    35    18    19    1
    36    18    45    1
    37    18    46    1
    38    19    24    1
    39    19    20    2
    40    20    21    1
    41    20    47    1
    42    21    22    2
    43    22    23    1
    44    22    24    1
    45    23    48    1
    46    23    49    1
    47    23    50    1
    48    25    30   ar
    49    25    26   ar
    50    26    27   ar
    51    26    51    1
    52    27    28   ar
    53    27    52    1
    54    28    29   ar
    55    28    53    1
    56    29    30   ar
    57    29    54    1
    58    30    55    1
@<TRIPOS>SUBSTRUCTURE
     1 ZINC001291841503        1 TEMP              0 ****  ****    0 ROOT


##########                                Name:    ZINC000269356812
##########                DOCK_Rotatable_Bonds:                  10
##########                         Heavy_Atoms:                  25
##########                    Molecular_Weight:             387.431
##########                DOCK_Rotatable_Bonds:                  10
##########                       Formal_Charge:          0.00999978
##########                     HBond_Acceptors:                  10
##########                        HBond_Donors:                   3
##########                         Heavy_Atoms:                  25
##########                          Grid_Score:          -29.726110
##########                     Grid_vdw_energy:          -28.261444
##########                      Grid_es_energy:           -1.464666
##########           Internal_energy_repulsive:            4.898389

@<TRIPOS>MOLECULE
ZINC000269356812
 40 41 1 0 0
SMALL
USER_CHARGES


@<TRIPOS>ATOM
      1 C1         -7.3453    3.3466   51.7258 C.3     1  ZINC000269356812   -0.1400
      2 C2         -6.3164    2.3829   52.3205 C.3     1  ZINC000269356812    0.2000
      3 O3         -6.1033    2.7034   53.6967 O.3     1  ZINC000269356812   -0.5400
      4 C4         -6.8354    0.9482   52.2055 C.3     1  ZINC000269356812    0.0900
      5 N5         -7.6844    0.6420   53.3594 N.am    1  ZINC000269356812   -0.6900
      6 C6         -8.5769   -0.3656   53.2908 C.2     1  ZINC000269356812    0.5100
      7 O7         -8.6784   -1.0181   52.2726 O.2     1  ZINC000269356812   -0.5100
      8 C8         -9.4411   -0.6788   54.4676 C.2     1  ZINC000269356812    0.5100
      9 O9         -9.1621   -0.2325   55.5615 O.2     1  ZINC000269356812   -0.4900
     10 N10       -10.5308   -1.4572   54.3154 N.am    1  ZINC000269356812   -0.6400
     11 C11       -11.3405   -1.7508   55.4180 C.ar    1  ZINC000269356812    0.0900
     12 C12       -11.1431   -2.9237   56.1464 C.ar    1  ZINC000269356812   -0.0600
     13 C13       -11.9660   -3.1730   57.2287 C.ar    1  ZINC000269356812   -0.1200
     14 C14       -12.9574   -2.2521   57.5535 C.ar    1  ZINC000269356812    0.1000
     15 S15       -14.0127   -2.5577   58.9311 S.3     1  ZINC000269356812   -0.0600
     16 C16       -15.4012   -3.4590   58.1895 C.3     1  ZINC000269356812    0.2900
     17 F17       -15.9805   -2.6777   57.1838 F       1  ZINC000269356812   -0.1700
     18 F18       -14.9378   -4.6589   57.6391 F       1  ZINC000269356812   -0.1700
     19 N19       -13.1164   -1.1482   56.8391 N.ar    1  ZINC000269356812   -0.4600
     20 C20       -12.3459   -0.8758   55.8037 C.ar    1  ZINC000269356812    0.1100
     21 C21        -5.0167    2.5088   51.5683 C.2     1  ZINC000269356812   -0.2300
     22 C22        -4.6867    1.8101   50.4811 C.2     1  ZINC000269356812   -0.1100
     23 C23        -3.4366    2.0971   49.9604 C.2     1  ZINC000269356812   -0.1400
     24 C24        -2.7515    3.0291   50.6247 C.2     1  ZINC000269356812   -0.2000
     25 S25        -3.7060    3.6051   51.9852 S.3     1  ZINC000269356812    0.1100
     26 H26        -6.9756    4.3687   51.8078 H       1  ZINC000269356812    0.0800
     27 H27        -7.5078    3.1021   50.6761 H       1  ZINC000269356812    0.0800
     28 H28        -8.2854    3.2556   52.2699 H       1  ZINC000269356812    0.0700
     29 H29        -5.5919    2.0404   54.1804 H       1  ZINC000269356812    0.3800
     30 H30        -7.4164    0.8444   51.2891 H       1  ZINC000269356812    0.0900
     31 H31        -5.9923    0.2577   52.1812 H       1  ZINC000269356812    0.0900
     32 H32        -7.6042    1.1643   54.1728 H       1  ZINC000269356812    0.4200
     33 H33       -10.7536   -1.8140   53.4412 H       1  ZINC000269356812    0.4300
     34 H34       -10.3655   -3.6209   55.8712 H       1  ZINC000269356812    0.1600
     35 H35       -11.8413   -4.0717   57.8147 H       1  ZINC000269356812    0.1500
     36 H36       -16.1455   -3.6745   58.9562 H       1  ZINC000269356812    0.1500
     37 H37       -12.5052    0.0343   55.2445 H       1  ZINC000269356812    0.1700
     38 H38        -5.3446    1.0756   50.0406 H       1  ZINC000269356812    0.1500
     39 H39        -3.0455    1.6037   49.0829 H       1  ZINC000269356812    0.1400
     40 H40        -1.7634    3.3791   50.3649 H       1  ZINC000269356812    0.1700
@<TRIPOS>BOND
     1     1     2    1
     2     1    26    1
     3     1    27    1
     4     1    28    1
     5     2     3    1
     6     2     4    1
     7     2    21    1
     8     3    29    1
     9     4     5    1
    10     4    30    1
    11     4    31    1
    12     5     6   am
    13     5    32    1
    14     6     7    2
    15     6     8    1
    16     8     9    2
    17     8    10   am
    18    10    11    1
    19    10    33    1
    20    11    20   ar
    21    11    12   ar
    22    12    13   ar
    23    12    34    1
    24    13    14   ar
    25    13    35    1
    26    14    15    1
    27    14    19   ar
    28    15    16    1
    29    16    17    1
    30    16    18    1
    31    16    36    1
    32    19    20   ar
    33    20    37    1
    34    21    25    1
    35    21    22    2
    36    22    23    1
    37    22    38    1
    38    23    24    2
    39    23    39    1
    40    24    25    1
    41    24    40    1
@<TRIPOS>SUBSTRUCTURE
     1 ZINC000269356812        1 TEMP              0 ****  ****    0 ROOT


##########                                Name:    ZINC000245764166
##########                DOCK_Rotatable_Bonds:                   8
##########                         Heavy_Atoms:                  26
##########                    Molecular_Weight:             359.512
##########                DOCK_Rotatable_Bonds:                   8
##########                       Formal_Charge:          -0.0100008
##########                     HBond_Acceptors:                   5
##########                        HBond_Donors:                   2
##########                         Heavy_Atoms:                  26
##########                          Grid_Score:          -29.697880
##########                     Grid_vdw_energy:          -29.954231
##########                      Grid_es_energy:            0.256352
##########           Internal_energy_repulsive:           29.420370

@<TRIPOS>MOLECULE
ZINC000245764166
 59 61 1 0 0
SMALL
USER_CHARGES


@<TRIPOS>ATOM
      1 C1         -6.4971   -0.1878   51.8809 C.3     1  ZINC000245764166    0.0200
      2 N2         -7.6463    0.7097   52.0589 N.3     1  ZINC000245764166   -0.5300
      3 C3         -7.6189    1.8014   51.0763 C.3     1  ZINC000245764166    0.0600
      4 C4         -6.2744    2.4810   51.1179 C.ar    1  ZINC000245764166   -0.0800
      5 C5         -5.2505    2.0378   50.3017 C.ar    1  ZINC000245764166   -0.1000
      6 C6         -4.0173    2.6610   50.3398 C.ar    1  ZINC000245764166   -0.1200
      7 C7         -3.8080    3.7278   51.1937 C.ar    1  ZINC000245764166   -0.1200
      8 C8         -4.8322    4.1716   52.0092 C.ar    1  ZINC000245764166   -0.1200
      9 C9         -6.0668    3.5510   51.9680 C.ar    1  ZINC000245764166   -0.1200
     10 C10        -8.9112   -0.0336   51.9847 C.3     1  ZINC000245764166    0.0500
     11 C11        -9.7382    0.2403   53.2426 C.3     1  ZINC000245764166    0.1900
     12 C12       -10.3718    1.6294   53.1439 C.3     1  ZINC000245764166   -0.1600
     13 C13       -10.8389   -0.8147   53.3691 C.3     1  ZINC000245764166   -0.1500
     14 N14        -8.8689    0.1827   54.4204 N.am    1  ZINC000245764166   -0.7400
     15 C15        -9.3837    0.3900   55.6487 C.2     1  ZINC000245764166    0.7000
     16 O16       -10.5692    0.6263   55.7790 O.2     1  ZINC000245764166   -0.5800
     17 N17        -8.5843    0.3354   56.7324 N.am    1  ZINC000245764166   -0.7500
     18 C18        -9.1437    0.5625   58.0673 C.3     1  ZINC000245764166    0.1800
     19 H19       -10.1524    0.1516   58.1082 H       1  ZINC000245764166    0.0900
     20 C20        -9.2009    2.0635   58.3393 C.3     1  ZINC000245764166   -0.1300
     21 C21        -9.8430    2.2874   59.7129 C.3     1  ZINC000245764166   -0.1100
     22 C22        -8.9403    1.6591   60.7743 C.3     1  ZINC000245764166   -0.1100
     23 C23        -8.7534    0.1797   60.5324 C.3     1  ZINC000245764166    0.0900
     24 H24        -8.0148   -0.2046   61.2359 H       1  ZINC000245764166    0.0600
     25 O25        -9.9669   -0.5707   60.6758 O.3     1  ZINC000245764166   -0.3600
     26 C26        -9.7175   -1.8562   60.0733 C.3     1  ZINC000245764166    0.0500
     27 C27        -8.6115   -1.6607   59.0164 C.3     1  ZINC000245764166   -0.1500
     28 C28        -8.2698   -0.1436   59.1063 C.3     1  ZINC000245764166   -0.1300
     29 H29        -7.2067    0.0554   58.9711 H       1  ZINC000245764166    0.1000
     30 H30        -5.5731    0.3853   51.9573 H       1  ZINC000245764166    0.0800
     31 H31        -6.5130   -0.9562   52.6538 H       1  ZINC000245764166    0.0700
     32 H32        -6.5524   -0.6587   50.8993 H       1  ZINC000245764166    0.0200
     33 H33        -7.7907    1.3968   50.0788 H       1  ZINC000245764166    0.0400
     34 H34        -8.3990    2.5244   51.3144 H       1  ZINC000245764166    0.1100
     35 H35        -5.4140    1.2044   49.6345 H       1  ZINC000245764166    0.1200
     36 H36        -3.2170    2.3144   49.7027 H       1  ZINC000245764166    0.1200
     37 H37        -2.8443    4.2143   51.2240 H       1  ZINC000245764166    0.1200
     38 H38        -4.6687    5.0048   52.6765 H       1  ZINC000245764166    0.1200
     39 H39        -6.8670    3.8977   52.6050 H       1  ZINC000245764166    0.1200
     40 H40        -9.4701    0.2869   51.1056 H       1  ZINC000245764166    0.0400
     41 H41        -8.7018   -1.1009   51.9129 H       1  ZINC000245764166    0.1000
     42 H42       -11.0186    1.6722   52.2675 H       1  ZINC000245764166    0.0700
     43 H43       -10.9609    1.8245   54.0401 H       1  ZINC000245764166    0.0800
     44 H44        -9.5876    2.3810   53.0538 H       1  ZINC000245764166    0.0500
     45 H45       -10.3886   -1.7883   53.5625 H       1  ZINC000245764166    0.0600
     46 H46       -11.5021   -0.5509   54.1930 H       1  ZINC000245764166    0.0800
     47 H47       -11.4105   -0.8564   52.4418 H       1  ZINC000245764166    0.0600
     48 H48        -7.9229   -0.0047   54.3164 H       1  ZINC000245764166    0.3900
     49 H49        -7.6388    0.1456   56.6286 H       1  ZINC000245764166    0.3900
     50 H50        -8.1915    2.4747   58.3360 H       1  ZINC000245764166    0.0600
     51 H51        -9.8004    2.5520   57.5712 H       1  ZINC000245764166    0.0700
     52 H52        -9.9429    3.3563   59.9018 H       1  ZINC000245764166    0.0700
     53 H53       -10.8254    1.8159   59.7403 H       1  ZINC000245764166    0.0700
     54 H54        -7.9674    2.1499   60.7511 H       1  ZINC000245764166    0.0800
     55 H55        -9.3893    1.8058   61.7567 H       1  ZINC000245764166    0.0700
     56 H56        -9.3833   -2.5628   60.8330 H       1  ZINC000245764166    0.0600
     57 H57       -10.6256   -2.2242   59.5958 H       1  ZINC000245764166    0.0800
     58 H58        -7.7375   -2.2643   59.2614 H       1  ZINC000245764166    0.0800
     59 H59        -8.9836   -1.9107   58.0229 H       1  ZINC000245764166    0.0800
@<TRIPOS>BOND
     1     1     2    1
     2     1    30    1
     3     1    31    1
     4     1    32    1
     5     2     3    1
     6     2    10    1
     7     3     4    1
     8     3    33    1
     9     3    34    1
    10     4     9   ar
    11     4     5   ar
    12     5     6   ar
    13     5    35    1
    14     6     7   ar
    15     6    36    1
    16     7     8   ar
    17     7    37    1
    18     8     9   ar
    19     8    38    1
    20     9    39    1
    21    10    11    1
    22    10    40    1
    23    10    41    1
    24    11    12    1
    25    11    13    1
    26    11    14    1
    27    12    42    1
    28    12    43    1
    29    12    44    1
    30    13    45    1
    31    13    46    1
    32    13    47    1
    33    14    15   am
    34    14    48    1
    35    15    16    2
    36    15    17   am
    37    17    18    1
    38    17    49    1
    39    18    19    1
    40    18    28    1
    41    18    20    1
    42    20    21    1
    43    20    50    1
    44    20    51    1
    45    21    22    1
    46    21    52    1
    47    21    53    1
    48    22    23    1
    49    22    54    1
    50    22    55    1
    51    23    24    1
    52    23    28    1
    53    23    25    1
    54    25    26    1
    55    26    27    1
    56    26    56    1
    57    26    57    1
    58    27    28    1
    59    27    58    1
    60    27    59    1
    61    28    29    1
@<TRIPOS>SUBSTRUCTURE
     1 ZINC000245764166        1 TEMP              0 ****  ****    0 ROOT


##########                                Name:    ZINC000124554441
##########                DOCK_Rotatable_Bonds:                   9
##########                         Heavy_Atoms:                  26
##########                    Molecular_Weight:             375.898
##########                DOCK_Rotatable_Bonds:                   9
##########                       Formal_Charge:         -0.00999991
##########                     HBond_Acceptors:                   6
##########                        HBond_Donors:                   1
##########                         Heavy_Atoms:                  26
##########                          Grid_Score:          -29.667036
##########                     Grid_vdw_energy:          -29.358810
##########                      Grid_es_energy:           -0.308225
##########           Internal_energy_repulsive:           13.279190

@<TRIPOS>MOLECULE
ZINC000124554441
 52 53 1 0 0
SMALL
USER_CHARGES


@<TRIPOS>ATOM
      1 C1        -14.6689    0.2555   47.1438 C.3     1  ZINC000124554441   -0.1500
      2 C2        -15.6800    0.6794   48.2111 C.3     1  ZINC000124554441   -0.1300
      3 C3        -15.7428   -0.3871   49.3062 C.3     1  ZINC000124554441   -0.1200
      4 C4        -15.3206    0.2281   50.6420 C.3     1  ZINC000124554441   -0.1200
      5 C5        -13.7937    0.2413   50.7376 C.3     1  ZINC000124554441   -0.1300
      6 C6        -13.3730    0.7803   52.1063 C.3     1  ZINC000124554441    0.1200
      7 N7        -11.9561    1.1509   52.0708 N.am    1  ZINC000124554441   -0.7300
      8 C8        -11.2033    1.0437   53.1836 C.2     1  ZINC000124554441    0.5200
      9 O9        -11.6993    0.6418   54.2148 O.2     1  ZINC000124554441   -0.5300
     10 C10        -9.7454    1.4232   53.1465 C.3     1  ZINC000124554441   -0.1200
     11 H11        -9.6168    2.4160   53.5776 H       1  ZINC000124554441    0.1000
     12 C12        -8.9325    0.4073   53.9522 C.3     1  ZINC000124554441   -0.1000
     13 C13        -7.4561    0.8100   53.9426 C.3     1  ZINC000124554441   -0.1400
     14 C14        -6.9397    0.8076   52.5003 C.3     1  ZINC000124554441    0.0900
     15 N15        -7.8060    1.6712   51.6864 N.am    1  ZINC000124554441   -0.6000
     16 C16        -7.2816    2.6675   50.9456 C.2     1  ZINC000124554441    0.5600
     17 O17        -8.0089    3.3750   50.2766 O.2     1  ZINC000124554441   -0.5200
     18 C18        -5.8207    2.8999   50.9468 C.ar    1  ZINC000124554441   -0.0900
     19 C19        -5.2915    4.0115   51.6054 C.ar    1  ZINC000124554441   -0.0900
     20 C20        -3.9316    4.2290   51.6072 C.ar    1  ZINC000124554441   -0.0600
     21 C21        -3.0807    3.3377   50.9497 C.ar    1  ZINC000124554441    0.0100
     22 C22        -1.6667    3.5637   50.9514 C.1     1  ZINC000124554441    0.2400
     23 N23        -0.5449    3.7430   50.9529 N.1     1  ZINC000124554441   -0.3800
     24 C24        -3.6102    2.2244   50.2900 C.ar    1  ZINC000124554441    0.0000
     25 Cl25       -2.5538    1.1155   49.4727 Cl      1  ZINC000124554441   -0.0400
     26 C26        -4.9714    2.0046   50.2942 C.ar    1  ZINC000124554441   -0.0600
     27 C27        -9.2551    1.4286   51.6951 C.3     1  ZINC000124554441    0.1200
     28 H28       -13.6849    0.1441   47.5993 H       1  ZINC000124554441    0.0500
     29 H29       -14.9773   -0.6949   46.7082 H       1  ZINC000124554441    0.0500
     30 H30       -14.6242    1.0152   46.3635 H       1  ZINC000124554441    0.0500
     31 H31       -15.3715    1.6298   48.6466 H       1  ZINC000124554441    0.0600
     32 H32       -16.6640    0.7908   47.7555 H       1  ZINC000124554441    0.0600
     33 H33       -16.7616   -0.7659   49.3865 H       1  ZINC000124554441    0.0600
     34 H34       -15.0693   -1.2064   49.0546 H       1  ZINC000124554441    0.0600
     35 H35       -15.6975    1.2489   50.7071 H       1  ZINC000124554441    0.0700
     36 H36       -15.7309   -0.3635   51.4603 H       1  ZINC000124554441    0.0700
     37 H37       -13.4132   -0.7726   50.6139 H       1  ZINC000124554441    0.0700
     38 H38       -13.3861    0.8804   49.9545 H       1  ZINC000124554441    0.0700
     39 H39       -13.9720    1.6575   52.3511 H       1  ZINC000124554441    0.0700
     40 H40       -13.5286    0.0115   52.8631 H       1  ZINC000124554441    0.0700
     41 H41       -11.5597    1.4735   51.2463 H       1  ZINC000124554441    0.4000
     42 H42        -9.2960    0.3842   54.9796 H       1  ZINC000124554441    0.0800
     43 H43        -9.0422   -0.5813   53.5062 H       1  ZINC000124554441    0.0800
     44 H44        -7.3486    1.8087   54.3659 H       1  ZINC000124554441    0.0700
     45 H45        -6.8812    0.0989   54.5359 H       1  ZINC000124554441    0.0900
     46 H46        -5.9186    1.1885   52.4772 H       1  ZINC000124554441    0.1000
     47 H47        -6.9620   -0.2082   52.1059 H       1  ZINC000124554441    0.0800
     48 H48        -5.9491    4.7014   52.1134 H       1  ZINC000124554441    0.1500
     49 H49        -3.5230    5.0890   52.1169 H       1  ZINC000124554441    0.1500
     50 H50        -5.3811    1.1450   49.7850 H       1  ZINC000124554441    0.1500
     51 H51        -9.4669    0.4634   51.2352 H       1  ZINC000124554441    0.0800
     52 H52        -9.7613    2.2189   51.1406 H       1  ZINC000124554441    0.1000
@<TRIPOS>BOND
     1     1     2    1
     2     1    28    1
     3     1    29    1
     4     1    30    1
     5     2     3    1
     6     2    31    1
     7     2    32    1
     8     3     4    1
     9     3    33    1
    10     3    34    1
    11     4     5    1
    12     4    35    1
    13     4    36    1
    14     5     6    1
    15     5    37    1
    16     5    38    1
    17     6     7    1
    18     6    39    1
    19     6    40    1
    20     7     8   am
    21     7    41    1
    22     8     9    2
    23     8    10    1
    24    10    11    1
    25    10    27    1
    26    10    12    1
    27    12    13    1
    28    12    42    1
    29    12    43    1
    30    13    14    1
    31    13    44    1
    32    13    45    1
    33    14    15    1
    34    14    46    1
    35    14    47    1
    36    15    16   am
    37    15    27    1
    38    16    17    2
    39    16    18    1
    40    18    26   ar
    41    18    19   ar
    42    19    20   ar
    43    19    48    1
    44    20    21   ar
    45    20    49    1
    46    21    22    1
    47    21    24   ar
    48    22    23    3
    49    24    25    1
    50    24    26   ar
    51    26    50    1
    52    27    51    1
    53    27    52    1
@<TRIPOS>SUBSTRUCTURE
     1 ZINC000124554441        1 TEMP              0 ****  ****    0 ROOT


##########                                Name:    ZINC000004313955
##########                DOCK_Rotatable_Bonds:                   6
##########                         Heavy_Atoms:                  26
##########                    Molecular_Weight:             414.358
##########                DOCK_Rotatable_Bonds:                   6
##########                       Formal_Charge:           0.0299997
##########                     HBond_Acceptors:                   9
##########                        HBond_Donors:                   2
##########                         Heavy_Atoms:                  26
##########                          Grid_Score:          -29.627071
##########                     Grid_vdw_energy:          -28.261837
##########                      Grid_es_energy:           -1.365235
##########           Internal_energy_repulsive:           13.122616

@<TRIPOS>MOLECULE
ZINC000004313955
 47 49 1 0 0
SMALL
USER_CHARGES


@<TRIPOS>ATOM
      1 C1        -13.9568   -3.8616   57.2552 C.3     1  ZINC000004313955   -0.1500
      2 C2        -13.6131   -2.6097   58.0649 C.3     1  ZINC000004313955   -0.1100
      3 H3        -12.9175   -2.8716   58.8621 H       1  ZINC000004313955    0.0800
      4 C4        -14.8914   -2.0279   58.6731 C.3     1  ZINC000004313955   -0.1100
      5 C5        -14.5446   -0.7946   59.5102 C.3     1  ZINC000004313955   -0.1100
      6 H6        -15.4523   -0.3945   59.9620 H       1  ZINC000004313955    0.0900
      7 C7        -13.5560   -1.1857   60.6105 C.3     1  ZINC000004313955   -0.1500
      8 C8        -13.9114    0.2688   58.6073 C.3     1  ZINC000004313955    0.1200
      9 N9        -12.7653   -0.3270   57.9071 N.am    1  ZINC000004313955   -0.6000
     10 C10       -11.5497    0.2525   57.9626 C.2     1  ZINC000004313955    0.5400
     11 O11       -11.3945    1.2765   58.5936 O.2     1  ZINC000004313955   -0.5300
     12 C12       -10.3837   -0.3718   57.2403 C.3     1  ZINC000004313955   -0.1400
     13 S13        -8.8393    0.3418   57.8584 S.3     1  ZINC000004313955    0.0800
     14 C14        -8.9551   -0.1047   59.5589 C.2     1  ZINC000004313955    0.1100
     15 N15        -9.5077   -1.1944   60.0430 N.2     1  ZINC000004313955   -0.2800
     16 N16        -9.4175   -1.2030   61.3249 N.2     1  ZINC000004313955   -0.2400
     17 C17        -8.8020   -0.1197   61.7382 C.2     1  ZINC000004313955    0.2500
     18 C18        -8.5038    0.2405   63.1405 C.ar    1  ZINC000004313955   -0.0100
     19 C19        -7.3264   -0.2047   63.7431 C.ar    1  ZINC000004313955   -0.0700
     20 C20        -7.0536    0.1345   65.0521 C.ar    1  ZINC000004313955   -0.1100
     21 C21        -7.9450    0.9148   65.7688 C.ar    1  ZINC000004313955   -0.0100
     22 Cl22       -7.5941    1.3365   67.4159 Cl      1  ZINC000004313955   -0.0500
     23 C23        -9.1150    1.3606   65.1773 C.ar    1  ZINC000004313955   -0.1100
     24 C24        -9.3967    1.0328   63.8663 C.ar    1  ZINC000004313955    0.0100
     25 Cl25      -10.8638    1.5921   63.1257 Cl      1  ZINC000004313955   -0.0100
     26 N26        -8.4821    0.6145   60.6195 N.pl3   1  ZINC000004313955   -0.3000
     27 N27        -7.8336    1.8161   60.5785 N.3     1  ZINC000004313955   -0.5800
     28 C28       -12.9686   -1.5673   57.1459 C.3     1  ZINC000004313955    0.1100
     29 H29       -13.0463   -4.2749   56.8213 H       1  ZINC000004313955    0.0600
     30 H30       -14.4164   -4.6025   57.9093 H       1  ZINC000004313955    0.0600
     31 H31       -14.6525   -3.5992   56.4582 H       1  ZINC000004313955    0.0600
     32 H32       -15.5769   -1.7439   57.8747 H       1  ZINC000004313955    0.0700
     33 H33       -15.3646   -2.7767   59.3084 H       1  ZINC000004313955    0.0700
     34 H34       -12.6481   -1.5846   60.1582 H       1  ZINC000004313955    0.0600
     35 H35       -13.3093   -0.3070   61.2064 H       1  ZINC000004313955    0.0600
     36 H36       -14.0065   -1.9441   61.2508 H       1  ZINC000004313955    0.0600
     37 H37       -14.6453    0.6139   57.8792 H       1  ZINC000004313955    0.0700
     38 H38       -13.5726    1.1085   59.2140 H       1  ZINC000004313955    0.1000
     39 H39       -10.3822   -1.4477   57.4148 H       1  ZINC000004313955    0.1300
     40 H40       -10.4718   -0.1770   56.1715 H       1  ZINC000004313955    0.1300
     41 H41        -6.6304   -0.8140   63.1857 H       1  ZINC000004313955    0.1600
     42 H42        -6.1426   -0.2098   65.5191 H       1  ZINC000004313955    0.1500
     43 H43        -9.8064    1.9689   65.7413 H       1  ZINC000004313955    0.1500
     44 H44        -8.4910    2.5815   60.5651 H       1  ZINC000004313955    0.3700
     45 H45        -7.1898    1.9061   61.3502 H       1  ZINC000004313955    0.3800
     46 H46       -12.0081   -1.9381   56.7883 H       1  ZINC000004313955    0.0900
     47 H47       -13.6258   -1.3723   56.2984 H       1  ZINC000004313955    0.0800
@<TRIPOS>BOND
     1     1     2    1
     2     1    29    1
     3     1    30    1
     4     1    31    1
     5     2     3    1
     6     2    28    1
     7     2     4    1
     8     4     5    1
     9     4    32    1
    10     4    33    1
    11     5     6    1
    12     5     7    1
    13     5     8    1
    14     7    34    1
    15     7    35    1
    16     7    36    1
    17     8     9    1
    18     8    37    1
    19     8    38    1
    20     9    10   am
    21     9    28    1
    22    10    11    2
    23    10    12    1
    24    12    13    1
    25    12    39    1
    26    12    40    1
    27    13    14    1
    28    14    26    1
    29    14    15    2
    30    15    16    1
    31    16    17    2
    32    17    18    1
    33    17    26    1
    34    18    24   ar
    35    18    19   ar
    36    19    20   ar
    37    19    41    1
    38    20    21   ar
    39    20    42    1
    40    21    22    1
    41    21    23   ar
    42    23    24   ar
    43    23    43    1
    44    24    25    1
    45    26    27    1
    46    27    44    1
    47    27    45    1
    48    28    46    1
    49    28    47    1
@<TRIPOS>SUBSTRUCTURE
     1 ZINC000004313955        1 TEMP              0 ****  ****    0 ROOT


##########                                Name:    ZINC000863208514
##########                DOCK_Rotatable_Bonds:                   6
##########                         Heavy_Atoms:                  19
##########                    Molecular_Weight:             368.657
##########                DOCK_Rotatable_Bonds:                   6
##########                       Formal_Charge:           0.0100005
##########                     HBond_Acceptors:                   7
##########                        HBond_Donors:                   2
##########                         Heavy_Atoms:                  19
##########                          Grid_Score:          -29.626411
##########                     Grid_vdw_energy:          -28.769138
##########                      Grid_es_energy:           -0.857273
##########           Internal_energy_repulsive:            6.926672

@<TRIPOS>MOLECULE
ZINC000863208514
 31 31 1 0 0
SMALL
USER_CHARGES


@<TRIPOS>ATOM
      1 C1          0.3669   -0.3452   48.4824 C.3     1  ZINC000863208514    0.0900
      2 N2         -1.0711   -0.0669   48.5136 N.am    1  ZINC000863208514   -0.6100
      3 C3         -2.0101   -0.9911   47.8733 C.3     1  ZINC000863208514    0.0700
      4 C4         -1.5300    1.0397   49.1314 C.2     1  ZINC000863208514    0.5100
      5 O5         -0.7524    1.8056   49.6601 O.2     1  ZINC000863208514   -0.5400
      6 C6         -3.0093    1.3251   49.1650 C.3     1  ZINC000863208514    0.1100
      7 N7         -3.2809    2.3804   50.1442 N.am    1  ZINC000863208514   -0.6600
      8 C8         -4.4946    2.4655   50.7241 C.2     1  ZINC000863208514    0.5600
      9 S9         -4.8113    3.6974   51.8699 S.2     1  ZINC000863208514   -0.6000
     10 N10        -5.4589    1.5807   50.4020 N.am    1  ZINC000863208514   -0.6300
     11 C11        -6.7200    1.6691   51.0046 C.ar    1  ZINC000863208514    0.1200
     12 C12        -7.0289    0.8644   52.0919 C.ar    1  ZINC000863208514   -0.0300
     13 C13        -8.2746    0.9539   52.6854 C.ar    1  ZINC000863208514   -0.0200
     14 Cl14       -8.6612   -0.0523   54.0462 Cl      1  ZINC000863208514   -0.0300
     15 C15        -9.2137    1.8454   52.1961 C.ar    1  ZINC000863208514   -0.0600
     16 Br16      -10.9161    1.9647   53.0107 Br      1  ZINC000863208514   -0.0100
     17 C17        -8.9090    2.6498   51.1122 C.ar    1  ZINC000863208514   -0.1100
     18 C18        -7.6634    2.5679   50.5178 C.ar    1  ZINC000863208514    0.1100
     19 F19        -7.3660    3.3533   49.4596 F       1  ZINC000863208514   -0.1200
     20 H20         0.5452   -1.2757   47.9434 H       1  ZINC000863208514    0.0800
     21 H21         0.8842    0.4713   47.9787 H       1  ZINC000863208514    0.0700
     22 H22         0.7412   -0.4384   49.5019 H       1  ZINC000863208514    0.0700
     23 H23        -2.3256   -1.7456   48.5939 H       1  ZINC000863208514    0.0700
     24 H24        -2.8811   -0.4383   47.5213 H       1  ZINC000863208514    0.0800
     25 H25        -1.5224   -1.4772   47.0284 H       1  ZINC000863208514    0.0800
     26 H26        -3.3390    1.6512   48.1786 H       1  ZINC000863208514    0.1200
     27 H27        -3.5476    0.4203   49.4473 H       1  ZINC000863208514    0.1200
     28 H28        -2.5873    3.0179   50.3751 H       1  ZINC000863208514    0.4100
     29 H29        -5.2794    0.8826   49.7528 H       1  ZINC000863208514    0.4200
     30 H30        -6.2970    0.1683   52.4742 H       1  ZINC000863208514    0.1800
     31 H31        -9.6435    3.3445   50.7322 H       1  ZINC000863208514    0.1600
@<TRIPOS>BOND
     1     1     2    1
     2     1    20    1
     3     1    21    1
     4     1    22    1
     5     2     3    1
     6     2     4   am
     7     3    23    1
     8     3    24    1
     9     3    25    1
    10     4     5    2
    11     4     6    1
    12     6     7    1
    13     6    26    1
    14     6    27    1
    15     7     8   am
    16     7    28    1
    17     8     9    2
    18     8    10   am
    19    10    11    1
    20    10    29    1
    21    11    18   ar
    22    11    12   ar
    23    12    13   ar
    24    12    30    1
    25    13    14    1
    26    13    15   ar
    27    15    16    1
    28    15    17   ar
    29    17    18   ar
    30    17    31    1
    31    18    19    1
@<TRIPOS>SUBSTRUCTURE
     1 ZINC000863208514        1 TEMP              0 ****  ****    0 ROOT


##########                                Name:    ZINC001119787528
##########                DOCK_Rotatable_Bonds:                   6
##########                         Heavy_Atoms:                  27
##########                    Molecular_Weight:             362.434
##########                DOCK_Rotatable_Bonds:                   6
##########                       Formal_Charge:          -0.0199998
##########                     HBond_Acceptors:                   7
##########                        HBond_Donors:                   1
##########                         Heavy_Atoms:                  27
##########                          Grid_Score:          -29.602045
##########                     Grid_vdw_energy:          -28.974043
##########                      Grid_es_energy:           -0.628002
##########           Internal_energy_repulsive:           14.531502

@<TRIPOS>MOLECULE
ZINC001119787528
 49 52 1 0 0
SMALL
USER_CHARGES


@<TRIPOS>ATOM
      1 C1         -5.4584    3.6113   52.7538 C.3     1  ZINC001119787528   -0.1700
      2 C2         -6.1344    3.2229   51.4374 C.3     1  ZINC001119787528    0.1000
      3 N3         -6.6631    1.8607   51.5433 N.pl3   1  ZINC001119787528   -0.4500
      4 C4         -6.0632    0.7291   51.1075 C.2     1  ZINC001119787528    0.1800
      5 N5         -6.8389   -0.2887   51.3765 N.2     1  ZINC001119787528   -0.4800
      6 C6         -7.9429    0.1521   51.9835 C.2     1  ZINC001119787528   -0.0200
      7 C7         -7.8488    1.4937   52.1044 C.2     1  ZINC001119787528   -0.0100
      8 C8         -8.8888    2.3751   52.7448 C.3     1  ZINC001119787528   -0.0600
      9 C9        -10.2130    1.6039   52.8188 C.3     1  ZINC001119787528    0.1400
     10 N10        -9.9496    0.2407   53.3033 N.am    1  ZINC001119787528   -0.6200
     11 C11       -10.4501   -0.1819   54.4811 C.2     1  ZINC001119787528    0.7200
     12 O12       -11.1287    0.5668   55.1569 O.2     1  ZINC001119787528   -0.5600
     13 N13       -10.1984   -1.4348   54.9096 N.am    1  ZINC001119787528   -0.6600
     14 C14       -10.7146   -1.8707   56.1244 C.ar    1  ZINC001119787528    0.4200
     15 C15       -12.0615   -2.2158   56.2390 C.ar    1  ZINC001119787528   -0.2500
     16 C16       -12.5267   -2.6440   57.4679 C.ar    1  ZINC001119787528    0.1600
     17 N17       -11.6854   -2.7124   58.4892 N.ar    1  ZINC001119787528   -0.5300
     18 C18       -10.4181   -2.3789   58.3481 C.ar    1  ZINC001119787528    0.3500
     19 C19        -9.4988   -2.4734   59.5385 C.3     1  ZINC001119787528   -0.0100
     20 C20        -9.6121   -1.2161   60.3616 C.ar    1  ZINC001119787528   -0.0800
     21 C21        -8.5239   -0.7620   61.0830 C.ar    1  ZINC001119787528   -0.1000
     22 C22        -8.6277    0.3913   61.8381 C.ar    1  ZINC001119787528   -0.1200
     23 C23        -9.8197    1.0906   61.8714 C.ar    1  ZINC001119787528   -0.1200
     24 C24       -10.9076    0.6369   61.1492 C.ar    1  ZINC001119787528   -0.1200
     25 C25       -10.8025   -0.5140   60.3908 C.ar    1  ZINC001119787528   -0.1000
     26 N26        -9.9316   -1.9705   57.1940 N.ar    1  ZINC001119787528   -0.5500
     27 C27        -9.1229   -0.6531   52.4738 C.3     1  ZINC001119787528    0.2000
     28 H28        -5.0649    4.6248   52.6751 H       1  ZINC001119787528    0.0800
     29 H29        -6.1868    3.5662   53.5635 H       1  ZINC001119787528    0.0600
     30 H30        -4.6417    2.9197   52.9608 H       1  ZINC001119787528    0.0600
     31 H31        -6.9510    3.9146   51.2303 H       1  ZINC001119787528    0.0900
     32 H32        -5.4058    3.2680   50.6278 H       1  ZINC001119787528    0.1000
     33 H33        -5.1021    0.6751   50.6177 H       1  ZINC001119787528    0.2100
     34 H34        -8.5680    2.6475   53.7502 H       1  ZINC001119787528    0.0800
     35 H35        -9.0236    3.2756   52.1457 H       1  ZINC001119787528    0.0900
     36 H36       -10.8915    2.1099   53.5056 H       1  ZINC001119787528    0.1100
     37 H37       -10.6637    1.5575   51.8275 H       1  ZINC001119787528    0.0800
     38 H38        -9.6569   -2.0321   54.3704 H       1  ZINC001119787528    0.4200
     39 H39       -12.7241   -2.1496   55.3887 H       1  ZINC001119787528    0.1800
     40 H40       -13.5634   -2.9192   57.5943 H       1  ZINC001119787528    0.1700
     41 H41        -9.7799   -3.3327   60.1474 H       1  ZINC001119787528    0.1000
     42 H42        -8.4711   -2.5917   59.1955 H       1  ZINC001119787528    0.1000
     43 H43        -7.5927   -1.3084   61.0570 H       1  ZINC001119787528    0.1300
     44 H44        -7.7778    0.7458   62.4023 H       1  ZINC001119787528    0.1200
     45 H45        -9.9010    1.9912   62.4618 H       1  ZINC001119787528    0.1200
     46 H46       -11.8390    1.1831   61.1756 H       1  ZINC001119787528    0.1200
     47 H47       -11.6524   -0.8684   59.8266 H       1  ZINC001119787528    0.1200
     48 H48        -9.7020   -1.0092   51.6217 H       1  ZINC001119787528    0.0900
     49 H49        -8.7790   -1.4989   53.0690 H       1  ZINC001119787528    0.0900
@<TRIPOS>BOND
     1     1     2    1
     2     1    28    1
     3     1    29    1
     4     1    30    1
     5     2     3    1
     6     2    31    1
     7     2    32    1
     8     3     7    1
     9     3     4    1
    10     4     5    2
    11     4    33    1
    12     5     6    1
    13     6    27    1
    14     6     7    2
    15     7     8    1
    16     8     9    1
    17     8    34    1
    18     8    35    1
    19     9    10    1
    20     9    36    1
    21     9    37    1
    22    10    11   am
    23    10    27    1
    24    11    12    2
    25    11    13   am
    26    13    14    1
    27    13    38    1
    28    14    26   ar
    29    14    15   ar
    30    15    16   ar
    31    15    39    1
    32    16    17   ar
    33    16    40    1
    34    17    18   ar
    35    18    19    1
    36    18    26   ar
    37    19    20    1
    38    19    41    1
    39    19    42    1
    40    20    25   ar
    41    20    21   ar
    42    21    22   ar
    43    21    43    1
    44    22    23   ar
    45    22    44    1
    46    23    24   ar
    47    23    45    1
    48    24    25   ar
    49    24    46    1
    50    25    47    1
    51    27    48    1
    52    27    49    1
@<TRIPOS>SUBSTRUCTURE
     1 ZINC001119787528        1 TEMP              0 ****  ****    0 ROOT


##########                                Name:    ZINC000949401225
##########                DOCK_Rotatable_Bonds:                   7
##########                         Heavy_Atoms:                  24
##########                    Molecular_Weight:             332.403
##########                DOCK_Rotatable_Bonds:                   7
##########                       Formal_Charge:                0.03
##########                     HBond_Acceptors:                   7
##########                        HBond_Donors:                   1
##########                         Heavy_Atoms:                  24
##########                          Grid_Score:          -29.588284
##########                     Grid_vdw_energy:          -28.067060
##########                      Grid_es_energy:           -1.521223
##########           Internal_energy_repulsive:           10.691342

@<TRIPOS>MOLECULE
ZINC000949401225
 48 50 1 0 0
SMALL
USER_CHARGES


@<TRIPOS>ATOM
      1 C1         -3.2579    5.2920   58.7879 C.3     1  ZINC000949401225    0.0700
      2 N2         -4.4834    4.5479   59.0890 N.pl3   1  ZINC000949401225   -0.4500
      3 C3         -5.1738    4.6251   60.2634 C.2     1  ZINC000949401225   -0.0100
      4 C4         -6.2427    3.8119   60.1937 C.2     1  ZINC000949401225   -0.1700
      5 C5         -6.2000    3.1877   58.8669 C.2     1  ZINC000949401225   -0.2400
      6 C6         -7.1591    2.2162   58.3145 C.2     1  ZINC000949401225    0.5900
      7 O7         -7.0006    1.7761   57.1919 O.2     1  ZINC000949401225   -0.5500
      8 N8         -8.2126    1.8149   59.0532 N.am    1  ZINC000949401225   -0.7300
      9 C9         -9.1658    0.8471   58.5045 C.3     1  ZINC000949401225    0.1200
     10 C10        -8.6611   -0.5727   58.7699 C.3     1  ZINC000949401225    0.1200
     11 H11        -7.7563   -0.8097   58.2102 H       1  ZINC000949401225    0.1000
     12 C12        -8.5645   -0.9180   60.2625 C.3     1  ZINC000949401225   -0.1500
     13 C13        -9.0887   -2.2837   59.7973 C.3     1  ZINC000949401225    0.1000
     14 N14        -9.7084   -1.5983   58.6519 N.am    1  ZINC000949401225   -0.6400
     15 C15       -10.7697   -1.8146   57.8498 C.2     1  ZINC000949401225    0.5500
     16 O16       -11.0264   -1.0322   56.9594 O.2     1  ZINC000949401225   -0.5200
     17 C17       -11.6373   -3.0289   58.0593 C.3     1  ZINC000949401225   -0.1400
     18 C18       -13.1093   -2.6328   57.9270 C.3     1  ZINC000949401225    0.1500
     19 H19       -13.1955   -1.6592   57.4444 H       1  ZINC000949401225    0.0900
     20 C20       -13.8794   -3.7003   57.1184 C.3     1  ZINC000949401225   -0.1200
     21 C21       -15.2559   -3.6971   57.8229 C.3     1  ZINC000949401225   -0.1600
     22 C22       -14.9580   -3.1915   59.2172 C.2     1  ZINC000949401225    0.5200
     23 O23       -15.7018   -3.2995   60.1690 O.2     1  ZINC000949401225   -0.5300
     24 N24       -13.7480   -2.6033   59.2480 N.am    1  ZINC000949401225   -0.6200
     25 C25       -13.1462   -2.0129   60.4461 C.3     1  ZINC000949401225    0.0900
     26 C26        -5.0928    3.6945   58.2442 C.2     1  ZINC000949401225    0.0800
     27 H27        -3.5162    6.2502   58.3372 H       1  ZINC000949401225    0.0800
     28 H28        -2.7006    5.4622   59.7091 H       1  ZINC000949401225    0.0900
     29 H29        -2.6452    4.7171   58.0935 H       1  ZINC000949401225    0.0900
     30 H30        -4.9056    5.2388   61.1107 H       1  ZINC000949401225    0.1700
     31 H31        -6.9845    3.6503   60.9617 H       1  ZINC000949401225    0.1500
     32 H32        -8.3397    2.1668   59.9481 H       1  ZINC000949401225    0.4000
     33 H33       -10.1365    0.9828   58.9813 H       1  ZINC000949401225    0.0700
     34 H34        -9.2639    1.0029   57.4301 H       1  ZINC000949401225    0.0900
     35 H35        -7.5466   -0.9388   60.6514 H       1  ZINC000949401225    0.1000
     36 H36        -9.2586   -0.3647   60.8950 H       1  ZINC000949401225    0.1000
     37 H37        -8.2981   -2.9774   59.5110 H       1  ZINC000949401225    0.0900
     38 H38        -9.8118   -2.7271   60.4818 H       1  ZINC000949401225    0.0800
     39 H39       -11.3950   -3.7823   57.3099 H       1  ZINC000949401225    0.1000
     40 H40       -11.4587   -3.4357   59.0546 H       1  ZINC000949401225    0.1000
     41 H41       -13.9752   -3.4044   56.0737 H       1  ZINC000949401225    0.1000
     42 H42       -13.3999   -4.6753   57.2036 H       1  ZINC000949401225    0.0800
     43 H43       -15.9444   -3.0239   57.3120 H       1  ZINC000949401225    0.1100
     44 H44       -15.6665   -4.7060   57.8626 H       1  ZINC000949401225    0.1000
     45 H45       -13.7886   -2.2018   61.3062 H       1  ZINC000949401225    0.0800
     46 H46       -12.1671   -2.4599   60.6188 H       1  ZINC000949401225    0.0600
     47 H47       -13.0350   -0.9379   60.3048 H       1  ZINC000949401225    0.0600
     48 H48        -4.7601    3.4473   57.2469 H       1  ZINC000949401225    0.1800
@<TRIPOS>BOND
     1     1     2    1
     2     1    27    1
     3     1    28    1
     4     1    29    1
     5     2    26    1
     6     2     3    1
     7     3     4    2
     8     3    30    1
     9     4     5    1
    10     4    31    1
    11     5     6    1
    12     5    26    2
    13     6     7    2
    14     6     8   am
    15     8     9    1
    16     8    32    1
    17     9    10    1
    18     9    33    1
    19     9    34    1
    20    10    11    1
    21    10    14    1
    22    10    12    1
    23    12    13    1
    24    12    35    1
    25    12    36    1
    26    13    14    1
    27    13    37    1
    28    13    38    1
    29    14    15   am
    30    15    16    2
    31    15    17    1
    32    17    18    1
    33    17    39    1
    34    17    40    1
    35    18    19    1
    36    18    24    1
    37    18    20    1
    38    20    21    1
    39    20    41    1
    40    20    42    1
    41    21    22    1
    42    21    43    1
    43    21    44    1
    44    22    23    2
    45    22    24   am
    46    24    25    1
    47    25    45    1
    48    25    46    1
    49    25    47    1
    50    26    48    1
@<TRIPOS>SUBSTRUCTURE
     1 ZINC000949401225        1 TEMP              0 ****  ****    0 ROOT


##########                                Name:    ZINC001296589646
##########                DOCK_Rotatable_Bonds:                   8
##########                         Heavy_Atoms:                  29
##########                    Molecular_Weight:             398.548
##########                DOCK_Rotatable_Bonds:                   8
##########                       Formal_Charge:          -0.0200008
##########                     HBond_Acceptors:                   6
##########                        HBond_Donors:                   0
##########                         Heavy_Atoms:                  29
##########                          Grid_Score:          -29.580088
##########                     Grid_vdw_energy:          -29.402704
##########                      Grid_es_energy:           -0.177384
##########           Internal_energy_repulsive:           29.869846

@<TRIPOS>MOLECULE
ZINC001296589646
 63 66 1 0 0
SMALL
USER_CHARGES


@<TRIPOS>ATOM
      1 C1         -9.3080    4.4062   49.5371 C.3     1  ZINC001296589646   -0.1500
      2 C2         -8.6069    3.1388   50.0300 C.3     1  ZINC001296589646    0.0500
      3 O3         -7.4738    3.4990   50.8228 O.3     1  ZINC001296589646   -0.3600
      4 C4         -6.6874    2.3859   51.2523 C.3     1  ZINC001296589646    0.1800
      5 C5         -7.5496    1.3538   51.9325 C.2     1  ZINC001296589646    0.1500
      6 N6         -7.6452    0.0947   51.6116 N.2     1  ZINC001296589646   -0.2600
      7 N7         -8.4699   -0.4992   52.3985 N.2     1  ZINC001296589646   -0.3200
      8 C8         -8.9485    0.3563   53.2707 C.2     1  ZINC001296589646    0.3600
      9 N9         -9.8625    0.0834   54.2760 N.3     1  ZINC001296589646   -0.4300
     10 C10       -11.2523    0.1052   53.7523 C.3     1  ZINC001296589646    0.0300
     11 C11       -12.0423   -0.7061   54.8096 C.3     1  ZINC001296589646   -0.1200
     12 C12       -11.0476   -1.8222   55.2031 C.3     1  ZINC001296589646   -0.1000
     13 H13       -11.2613   -2.7336   54.6449 H       1  ZINC001296589646    0.0800
     14 C14       -11.1205   -2.0924   56.7073 C.3     1  ZINC001296589646   -0.1400
     15 C15        -9.6590   -1.2756   54.8229 C.3     1  ZINC001296589646    0.0500
     16 N16        -8.3719    1.5640   53.0045 N.pl3   1  ZINC001296589646   -0.4600
     17 C17        -8.5952    2.8262   53.7139 C.3     1  ZINC001296589646    0.1000
     18 C18        -7.7508    2.8506   54.9896 C.3     1  ZINC001296589646   -0.1300
     19 C19        -8.0078    4.1553   55.7463 C.3     1  ZINC001296589646   -0.0500
     20 H20        -7.7362    5.0011   55.1148 H       1  ZINC001296589646    0.0800
     21 C21        -9.4900    4.2483   56.1139 C.3     1  ZINC001296589646   -0.1500
     22 C22        -7.1761    4.1792   57.0028 C.ar    1  ZINC001296589646   -0.0800
     23 C23        -7.6854    3.6608   58.1788 C.ar    1  ZINC001296589646   -0.1100
     24 C24        -6.9225    3.6828   59.3313 C.ar    1  ZINC001296589646   -0.1200
     25 C25        -5.6502    4.2228   59.3079 C.ar    1  ZINC001296589646   -0.1200
     26 C26        -5.1406    4.7404   58.1318 C.ar    1  ZINC001296589646   -0.1200
     27 C27        -5.9019    4.7145   56.9782 C.ar    1  ZINC001296589646   -0.1200
     28 C28        -5.5345    2.8501   52.1836 C.3     1  ZINC001296589646   -0.1400
     29 C29        -4.4626    3.2604   51.1427 C.3     1  ZINC001296589646    0.0600
     30 O30        -4.5956    2.3107   50.0732 O.3     1  ZINC001296589646   -0.3700
     31 C31        -5.9198    1.7648   50.0655 C.3     1  ZINC001296589646    0.0400
     32 H32        -9.7132    4.9521   50.3891 H       1  ZINC001296589646    0.0600
     33 H33        -8.5916    5.0359   49.0095 H       1  ZINC001296589646    0.0700
     34 H34       -10.1188    4.1335   48.8614 H       1  ZINC001296589646    0.0700
     35 H35        -9.2997    2.5512   50.6324 H       1  ZINC001296589646    0.0500
     36 H36        -8.2788    2.5488   49.1744 H       1  ZINC001296589646    0.0600
     37 H37       -11.6255    1.1277   53.6942 H       1  ZINC001296589646    0.0900
     38 H38       -11.3037   -0.3801   52.7777 H       1  ZINC001296589646    0.0600
     39 H39       -12.2847   -0.0840   55.6711 H       1  ZINC001296589646    0.0800
     40 H40       -12.9462   -1.1314   54.3731 H       1  ZINC001296589646    0.0800
     41 H41       -12.1234   -2.4313   56.9674 H       1  ZINC001296589646    0.0600
     42 H42       -10.3964   -2.8623   56.9737 H       1  ZINC001296589646    0.0600
     43 H43       -10.8939   -1.1761   57.2525 H       1  ZINC001296589646    0.0600
     44 H44        -9.2023   -1.9153   54.0676 H       1  ZINC001296589646    0.0800
     45 H45        -9.0234   -1.2288   55.7072 H       1  ZINC001296589646    0.0900
     46 H46        -8.3083    3.6593   53.0722 H       1  ZINC001296589646    0.1100
     47 H47        -9.6499    2.9149   53.9745 H       1  ZINC001296589646    0.1000
     48 H48        -8.0223    2.0047   55.6212 H       1  ZINC001296589646    0.0800
     49 H49        -6.6948    2.7843   54.7276 H       1  ZINC001296589646    0.0700
     50 H50        -9.6730    5.1778   56.6531 H       1  ZINC001296589646    0.0600
     51 H51       -10.0914    4.2310   55.2050 H       1  ZINC001296589646    0.0600
     52 H52        -9.7615    3.4025   56.7455 H       1  ZINC001296589646    0.0600
     53 H53        -8.6794    3.2388   58.1971 H       1  ZINC001296589646    0.1200
     54 H54        -7.3207    3.2784   60.2502 H       1  ZINC001296589646    0.1200
     55 H55        -5.0545    4.2406   60.2086 H       1  ZINC001296589646    0.1200
     56 H56        -4.1468    5.1626   58.1136 H       1  ZINC001296589646    0.1200
     57 H57        -5.5037    5.1190   56.0593 H       1  ZINC001296589646    0.1200
     58 H58        -5.8390    3.7027   52.7907 H       1  ZINC001296589646    0.1000
     59 H59        -5.1810    2.0308   52.8096 H       1  ZINC001296589646    0.1000
     60 H60        -4.6554    4.2695   50.7787 H       1  ZINC001296589646    0.0700
     61 H61        -3.4666    3.1993   51.5812 H       1  ZINC001296589646    0.0900
     62 H62        -5.8741    0.6819   50.1807 H       1  ZINC001296589646    0.1000
     63 H63        -6.4185    2.0175   49.1298 H       1  ZINC001296589646    0.0800
@<TRIPOS>BOND
     1     1     2    1
     2     1    32    1
     3     1    33    1
     4     1    34    1
     5     2     3    1
     6     2    35    1
     7     2    36    1
     8     3     4    1
     9     4    31    1
    10     4     5    1
    11     4    28    1
    12     5    16    1
    13     5     6    2
    14     6     7    1
    15     7     8    2
    16     8     9    1
    17     8    16    1
    18     9    15    1
    19     9    10    1
    20    10    11    1
    21    10    37    1
    22    10    38    1
    23    11    12    1
    24    11    39    1
    25    11    40    1
    26    12    13    1
    27    12    14    1
    28    12    15    1
    29    14    41    1
    30    14    42    1
    31    14    43    1
    32    15    44    1
    33    15    45    1
    34    16    17    1
    35    17    18    1
    36    17    46    1
    37    17    47    1
    38    18    19    1
    39    18    48    1
    40    18    49    1
    41    19    20    1
    42    19    21    1
    43    19    22    1
    44    21    50    1
    45    21    51    1
    46    21    52    1
    47    22    27   ar
    48    22    23   ar
    49    23    24   ar
    50    23    53    1
    51    24    25   ar
    52    24    54    1
    53    25    26   ar
    54    25    55    1
    55    26    27   ar
    56    26    56    1
    57    27    57    1
    58    28    29    1
    59    28    58    1
    60    28    59    1
    61    29    30    1
    62    29    60    1
    63    29    61    1
    64    30    31    1
    65    31    62    1
    66    31    63    1
@<TRIPOS>SUBSTRUCTURE
     1 ZINC001296589646        1 TEMP              0 ****  ****    0 ROOT


##########                                Name:    ZINC000768148687
##########                DOCK_Rotatable_Bonds:                   8
##########                         Heavy_Atoms:                  25
##########                    Molecular_Weight:             371.307
##########                DOCK_Rotatable_Bonds:                   8
##########                       Formal_Charge:         2.98023e-08
##########                     HBond_Acceptors:                  11
##########                        HBond_Donors:                   0
##########                         Heavy_Atoms:                  25
##########                          Grid_Score:          -29.545900
##########                     Grid_vdw_energy:          -28.173855
##########                      Grid_es_energy:           -1.372046
##########           Internal_energy_repulsive:            8.568853

@<TRIPOS>MOLECULE
ZINC000768148687
 43 44 1 0 0
SMALL
USER_CHARGES


@<TRIPOS>ATOM
      1 C1         -9.3886   -0.1623   61.5860 C.3     1  ZINC000768148687   -0.1800
      2 C2         -8.2307   -0.3590   60.6055 C.3     1  ZINC000768148687    0.1100
      3 N3         -8.7631   -0.6859   59.2804 N.pl3   1  ZINC000768148687   -0.3100
      4 N4         -9.4205   -1.8714   58.9332 N.2     1  ZINC000768148687   -0.2000
      5 C5         -9.7545   -1.8165   57.6736 C.2     1  ZINC000768148687    0.0200
      6 C6        -10.4797   -2.8888   56.9021 C.3     1  ZINC000768148687    0.5500
      7 F7        -10.2781   -4.1266   57.5221 F       1  ZINC000768148687   -0.1600
      8 F8        -11.8480   -2.5986   56.8741 F       1  ZINC000768148687   -0.1600
      9 F9         -9.9863   -2.9367   55.5939 F       1  ZINC000768148687   -0.1500
     10 C10        -9.3170   -0.5749   57.1591 C.2     1  ZINC000768148687   -0.1800
     11 C11        -9.4846   -0.0927   55.7775 C.2     1  ZINC000768148687    0.5300
     12 O12       -10.5431    0.3901   55.4266 O.2     1  ZINC000768148687   -0.4700
     13 O13        -8.4640   -0.1869   54.9025 O.3     1  ZINC000768148687   -0.3400
     14 C14        -8.5202    0.6675   53.7299 C.3     1  ZINC000768148687    0.0200
     15 C15        -7.2021    0.5641   52.9600 C.3     1  ZINC000768148687    0.0600
     16 N16        -7.1229    1.6521   51.9762 N.3     1  ZINC000768148687   -0.5300
     17 C17        -8.1415    1.4904   50.9286 C.3     1  ZINC000768148687    0.0100
     18 C18        -8.0627    2.6739   49.9605 C.3     1  ZINC000768148687    0.0600
     19 O19        -6.7404    2.7555   49.4219 O.3     1  ZINC000768148687   -0.3800
     20 C20        -5.7232    2.9141   50.4147 C.3     1  ZINC000768148687    0.0600
     21 C21        -5.7782    1.7330   51.3873 C.3     1  ZINC000768148687    0.0100
     22 C22        -8.7077    0.1039   58.1965 C.2     1  ZINC000768148687    0.0600
     23 C23        -8.0860    1.4746   58.1223 C.3     1  ZINC000768148687    0.3400
     24 F24        -8.7418    2.3328   59.0115 F       1  ZINC000768148687   -0.1700
     25 F25        -6.7326    1.3921   58.4665 F       1  ZINC000768148687   -0.1800
     26 H26        -8.9924    0.0809   62.5719 H       1  ZINC000768148687    0.0900
     27 H27       -10.0243    0.6523   61.2389 H       1  ZINC000768148687    0.0700
     28 H28        -9.9739   -1.0798   61.6459 H       1  ZINC000768148687    0.0700
     29 H29        -7.6454    0.5585   60.5456 H       1  ZINC000768148687    0.1100
     30 H30        -7.5950   -1.1735   60.9526 H       1  ZINC000768148687    0.1200
     31 H31        -9.3418    0.3500   53.0879 H       1  ZINC000768148687    0.0800
     32 H32        -8.6796    1.7002   54.0401 H       1  ZINC000768148687    0.0800
     33 H33        -6.3673    0.6426   53.6565 H       1  ZINC000768148687    0.1100
     34 H34        -7.1565   -0.3954   52.4450 H       1  ZINC000768148687    0.0900
     35 H35        -7.9606    0.5630   50.3851 H       1  ZINC000768148687    0.0500
     36 H36        -9.1309    1.4585   51.3848 H       1  ZINC000768148687    0.0900
     37 H37        -8.7775    2.5296   49.1504 H       1  ZINC000768148687    0.1000
     38 H38        -8.2964    3.5958   50.4931 H       1  ZINC000768148687    0.0600
     39 H39        -4.7459    2.9435   49.9329 H       1  ZINC000768148687    0.1000
     40 H40        -5.8888    3.8429   50.9604 H       1  ZINC000768148687    0.0600
     41 H41        -5.0426    1.8783   52.1783 H       1  ZINC000768148687    0.0800
     42 H42        -5.5595    0.8095   50.8511 H       1  ZINC000768148687    0.0700
     43 H43        -8.1799    1.8618   57.1078 H       1  ZINC000768148687    0.1500
@<TRIPOS>BOND
     1     1     2    1
     2     1    26    1
     3     1    27    1
     4     1    28    1
     5     2     3    1
     6     2    29    1
     7     2    30    1
     8     3    22    1
     9     3     4    1
    10     4     5    2
    11     5     6    1
    12     5    10    1
    13     6     7    1
    14     6     8    1
    15     6     9    1
    16    10    11    1
    17    10    22    2
    18    11    12    2
    19    11    13    1
    20    13    14    1
    21    14    15    1
    22    14    31    1
    23    14    32    1
    24    15    16    1
    25    15    33    1
    26    15    34    1
    27    16    21    1
    28    16    17    1
    29    17    18    1
    30    17    35    1
    31    17    36    1
    32    18    19    1
    33    18    37    1
    34    18    38    1
    35    19    20    1
    36    20    21    1
    37    20    39    1
    38    20    40    1
    39    21    41    1
    40    21    42    1
    41    22    23    1
    42    23    24    1
    43    23    25    1
    44    23    43    1
@<TRIPOS>SUBSTRUCTURE
     1 ZINC000768148687        1 TEMP              0 ****  ****    0 ROOT


##########                                Name:    ZINC000444205493
##########                DOCK_Rotatable_Bonds:                   4
##########                         Heavy_Atoms:                  24
##########                    Molecular_Weight:             415.351
##########                DOCK_Rotatable_Bonds:                   4
##########                       Formal_Charge:         -0.00999995
##########                     HBond_Acceptors:                   6
##########                        HBond_Donors:                   1
##########                         Heavy_Atoms:                  24
##########                          Grid_Score:          -29.538132
##########                     Grid_vdw_energy:          -27.276377
##########                      Grid_es_energy:           -2.261754
##########           Internal_energy_repulsive:           13.000156

@<TRIPOS>MOLECULE
ZINC000444205493
 47 49 1 0 0
SMALL
USER_CHARGES


@<TRIPOS>ATOM
      1 C1         -8.2215   -0.0617   63.7548 C.3     1  ZINC000444205493   -0.1700
      2 C2         -8.8872   -0.0487   62.4029 C.2     1  ZINC000444205493    0.5100
      3 O3        -10.0643    0.2281   62.3092 O.2     1  ZINC000444205493   -0.5100
      4 N4         -8.1744   -0.3448   61.2980 N.am    1  ZINC000444205493   -0.6800
      5 C5         -8.7926   -0.3327   60.0424 C.ar    1  ZINC000444205493    0.2300
      6 C6         -8.9396   -1.5138   59.3279 C.ar    1  ZINC000444205493   -0.1400
      7 C7         -9.5507   -1.4987   58.0890 C.ar    1  ZINC000444205493    0.0200
      8 C8        -10.0155   -0.3090   57.5599 C.ar    1  ZINC000444205493   -0.6900
      9 S9        -10.7938   -0.2946   55.9792 S.o2    1  ZINC000444205493    2.7100
     10 O10       -10.8584   -1.6480   55.5513 O.2     1  ZINC000444205493   -0.9500
     11 O11       -11.9396    0.5368   56.1035 O.2     1  ZINC000444205493   -0.9500
     12 N12        -9.7671    0.4777   54.9342 N.am    1  ZINC000444205493   -1.0100
     13 C13        -9.2904    1.8675   55.0663 C.3     1  ZINC000444205493    0.1200
     14 C14        -7.9570    1.9101   54.2753 C.3     1  ZINC000444205493   -0.1200
     15 C15        -8.2646    0.9571   53.1041 C.3     1  ZINC000444205493   -0.0700
     16 C16        -8.9656    1.7024   51.9636 C.3     1  ZINC000444205493   -0.1100
     17 C17        -7.8238    2.0042   50.9577 C.3     1  ZINC000444205493   -0.1200
     18 C18        -6.9406    0.7335   51.0458 C.3     1  ZINC000444205493   -0.1000
     19 H19        -7.3586   -0.0647   50.4325 H       1  ZINC000444205493    0.0700
     20 C20        -5.5075    1.0465   50.6112 C.3     1  ZINC000444205493   -0.1500
     21 C21        -6.9826    0.3448   52.5411 C.3     1  ZINC000444205493   -0.1100
     22 C22        -9.1728   -0.1112   53.7220 C.3     1  ZINC000444205493    0.1300
     23 C23        -9.8715    0.8697   58.2687 C.ar    1  ZINC000444205493    0.0300
     24 C24        -9.2660    0.8609   59.5106 C.ar    1  ZINC000444205493   -0.1500
     25 Br25       -9.0692    2.4729   60.4795 Br      1  ZINC000444205493   -0.0300
     26 H26        -8.9506    0.2010   64.5213 H       1  ZINC000444205493    0.1000
     27 H27        -7.8260   -1.0574   63.9556 H       1  ZINC000444205493    0.1000
     28 H28        -7.4065    0.6619   63.7655 H       1  ZINC000444205493    0.1000
     29 H29        -7.2330   -0.5663   61.3730 H       1  ZINC000444205493    0.4200
     30 H30        -8.5761   -2.4436   59.7400 H       1  ZINC000444205493    0.1600
     31 H31        -9.6651   -2.4175   57.5329 H       1  ZINC000444205493    0.1500
     32 H32       -10.0119    2.5586   54.6304 H       1  ZINC000444205493    0.0800
     33 H33        -9.1172    2.1106   56.1146 H       1  ZINC000444205493    0.0800
     34 H34        -7.7479    2.9175   53.9152 H       1  ZINC000444205493    0.0900
     35 H35        -7.1316    1.5334   54.8795 H       1  ZINC000444205493    0.0800
     36 H36        -9.7241    1.0697   51.5026 H       1  ZINC000444205493    0.0700
     37 H37        -9.4091    2.6290   52.3279 H       1  ZINC000444205493    0.0700
     38 H38        -8.2202    2.1293   49.9501 H       1  ZINC000444205493    0.0700
     39 H39        -7.2622    2.8864   51.2649 H       1  ZINC000444205493    0.0700
     40 H40        -5.0986    1.8324   51.2463 H       1  ZINC000444205493    0.0500
     41 H41        -4.8955    0.1493   50.7039 H       1  ZINC000444205493    0.0500
     42 H42        -5.5072    1.3807   49.5737 H       1  ZINC000444205493    0.0500
     43 H43        -6.1140    0.7520   53.0588 H       1  ZINC000444205493    0.0700
     44 H44        -7.0078   -0.7398   52.6459 H       1  ZINC000444205493    0.0700
     45 H45        -8.5872   -0.9938   53.9792 H       1  ZINC000444205493    0.0700
     46 H46        -9.9622   -0.3797   53.0199 H       1  ZINC000444205493    0.0800
     47 H47       -10.2360    1.7974   57.8529 H       1  ZINC000444205493    0.1500
@<TRIPOS>BOND
     1     1     2    1
     2     1    26    1
     3     1    27    1
     4     1    28    1
     5     2     3    2
     6     2     4   am
     7     4     5    1
     8     4    29    1
     9     5    24   ar
    10     5     6   ar
    11     6     7   ar
    12     6    30    1
    13     7     8   ar
    14     7    31    1
    15     8     9    1
    16     8    23   ar
    17     9    10    2
    18     9    11    2
    19     9    12   am
    20    12    22    1
    21    12    13    1
    22    13    14    1
    23    13    32    1
    24    13    33    1
    25    14    15    1
    26    14    34    1
    27    14    35    1
    28    15    21    1
    29    15    16    1
    30    15    22    1
    31    16    17    1
    32    16    36    1
    33    16    37    1
    34    17    18    1
    35    17    38    1
    36    17    39    1
    37    18    19    1
    38    18    20    1
    39    18    21    1
    40    20    40    1
    41    20    41    1
    42    20    42    1
    43    21    43    1
    44    21    44    1
    45    22    45    1
    46    22    46    1
    47    23    24   ar
    48    23    47    1
    49    24    25    1
@<TRIPOS>SUBSTRUCTURE
     1 ZINC000444205493        1 TEMP              0 ****  ****    0 ROOT


##########                                Name:    ZINC000430767928
##########                DOCK_Rotatable_Bonds:                   4
##########                         Heavy_Atoms:                  25
##########                    Molecular_Weight:             358.505
##########                DOCK_Rotatable_Bonds:                   4
##########                       Formal_Charge:          -0.0100002
##########                     HBond_Acceptors:                   5
##########                        HBond_Donors:                   0
##########                         Heavy_Atoms:                  25
##########                          Grid_Score:          -29.536846
##########                     Grid_vdw_energy:          -29.438076
##########                      Grid_es_energy:           -0.098770
##########           Internal_energy_repulsive:           18.750919

@<TRIPOS>MOLECULE
ZINC000430767928
 51 55 1 0 0
SMALL
USER_CHARGES


@<TRIPOS>ATOM
      1 O1        -11.3302   -2.7115   55.0896 O.2     1  ZINC000430767928   -0.4600
      2 C2        -11.2937   -1.5051   55.2031 C.2     1  ZINC000430767928    0.5300
      3 C3        -11.2889   -0.4803   54.0945 C.3     1  ZINC000430767928    0.0400
      4 H4        -12.2512   -0.4002   53.5887 H       1  ZINC000430767928    0.1400
      5 C5        -10.1167   -0.7075   53.1178 C.3     1  ZINC000430767928   -0.1100
      6 C6         -9.7863    0.7345   52.6548 C.3     1  ZINC000430767928   -0.1000
      7 H7        -10.2755    0.9490   51.7047 H       1  ZINC000430767928    0.1000
      8 C8         -8.2728    0.9184   52.5263 C.3     1  ZINC000430767928   -0.0800
      9 C9         -7.6875   -0.2298   51.7017 C.3     1  ZINC000430767928   -0.1100
     10 C10        -6.1740   -0.0457   51.5734 C.3     1  ZINC000430767928   -0.1200
     11 C11        -5.8793    1.2843   50.8768 C.3     1  ZINC000430767928   -0.1200
     12 C12        -6.4646    2.4325   51.7014 C.3     1  ZINC000430767928   -0.1200
     13 C13        -7.9781    2.2484   51.8297 C.3     1  ZINC000430767928   -0.1200
     14 C14       -10.3482    1.6467   53.7666 C.3     1  ZINC000430767928    0.1600
     15 N15       -10.8972    0.7658   54.8111 N.am    1  ZINC000430767928   -0.6400
     16 C16       -11.1599    0.5348   56.1013 C.2     1  ZINC000430767928    0.7400
     17 O17       -11.2789    1.4052   56.9412 O.2     1  ZINC000430767928   -0.5100
     18 N18       -11.2544   -0.7899   56.3493 N.am    1  ZINC000430767928   -0.5800
     19 C19       -11.3004   -1.3785   57.6900 C.3     1  ZINC000430767928    0.2600
     20 H20       -11.1383   -0.5992   58.4347 H       1  ZINC000430767928    0.1200
     21 C21       -12.6483   -2.0143   57.9135 C.2     1  ZINC000430767928   -0.2100
     22 C22       -13.6570   -1.4611   58.5885 C.2     1  ZINC000430767928   -0.1200
     23 C23       -14.8027   -2.2344   58.6629 C.2     1  ZINC000430767928   -0.1400
     24 C24       -14.7242   -3.4158   58.0484 C.2     1  ZINC000430767928   -0.2300
     25 S25       -13.1345   -3.5962   57.3179 S.3     1  ZINC000430767928    0.1700
     26 C26       -10.2076   -2.4416   57.8181 C.3     1  ZINC000430767928   -0.1700
     27 C27        -9.2717   -2.3508   59.0252 C.3     1  ZINC000430767928   -0.1700
     28 C28       -10.3338   -3.4503   58.9615 C.3     1  ZINC000430767928   -0.1600
     29 H29        -9.2654   -1.1543   53.6314 H       1  ZINC000430767928    0.0800
     30 H30       -10.4288   -1.3235   52.2744 H       1  ZINC000430767928    0.1000
     31 H31        -7.8215    0.9202   53.5185 H       1  ZINC000430767928    0.0700
     32 H32        -7.8975   -1.1773   52.1981 H       1  ZINC000430767928    0.0600
     33 H33        -8.1388   -0.2314   50.7096 H       1  ZINC000430767928    0.0700
     34 H34        -5.7228   -0.0441   52.5656 H       1  ZINC000430767928    0.0600
     35 H35        -5.7571   -0.8637   50.9860 H       1  ZINC000430767928    0.0600
     36 H36        -4.8012    1.4154   50.7853 H       1  ZINC000430767928    0.0600
     37 H37        -6.3306    1.2826   49.8847 H       1  ZINC000430767928    0.0600
     38 H38        -6.0134    2.4342   52.6936 H       1  ZINC000430767928    0.0600
     39 H39        -6.2547    3.3800   51.2051 H       1  ZINC000430767928    0.0600
     40 H40        -8.4294    2.2468   50.8376 H       1  ZINC000430767928    0.0700
     41 H41        -8.3950    3.0665   52.4172 H       1  ZINC000430767928    0.0600
     42 H42        -9.5528    2.2696   54.1759 H       1  ZINC000430767928    0.0900
     43 H43       -11.1457    2.2734   53.3674 H       1  ZINC000430767928    0.0800
     44 H44       -13.5854   -0.4839   59.0427 H       1  ZINC000430767928    0.1400
     45 H45       -15.6924   -1.9064   59.1796 H       1  ZINC000430767928    0.1400
     46 H46       -15.5169   -4.1480   58.0033 H       1  ZINC000430767928    0.1600
     47 H47        -9.7844   -2.7964   56.8783 H       1  ZINC000430767928    0.1200
     48 H48        -8.2326   -2.6459   58.8797 H       1  ZINC000430767928    0.1000
     49 H49        -9.4346   -1.5338   59.7280 H       1  ZINC000430767928    0.1000
     50 H50       -11.1955   -3.3566   59.6225 H       1  ZINC000430767928    0.1000
     51 H51        -9.9933   -4.4687   58.7742 H       1  ZINC000430767928    0.1000
@<TRIPOS>BOND
     1     1     2    2
     2     2    18   am
     3     2     3    1
     4     3     4    1
     5     3    15    1
     6     3     5    1
     7     5     6    1
     8     5    29    1
     9     5    30    1
    10     6     7    1
    11     6     8    1
    12     6    14    1
    13     8    13    1
    14     8     9    1
    15     8    31    1
    16     9    10    1
    17     9    32    1
    18     9    33    1
    19    10    11    1
    20    10    34    1
    21    10    35    1
    22    11    12    1
    23    11    36    1
    24    11    37    1
    25    12    13    1
    26    12    38    1
    27    12    39    1
    28    13    40    1
    29    13    41    1
    30    14    15    1
    31    14    42    1
    32    14    43    1
    33    15    16   am
    34    16    17    2
    35    16    18   am
    36    18    19    1
    37    19    20    1
    38    19    21    1
    39    19    26    1
    40    21    25    1
    41    21    22    2
    42    22    23    1
    43    22    44    1
    44    23    24    2
    45    23    45    1
    46    24    25    1
    47    24    46    1
    48    26    28    1
    49    26    27    1
    50    26    47    1
    51    27    28    1
    52    27    48    1
    53    27    49    1
    54    28    50    1
    55    28    51    1
@<TRIPOS>SUBSTRUCTURE
     1 ZINC000430767928        1 TEMP              0 ****  ****    0 ROOT


##########                                Name:    ZINC001344051361
##########                DOCK_Rotatable_Bonds:                   8
##########                         Heavy_Atoms:                  28
##########                    Molecular_Weight:             379.456
##########                DOCK_Rotatable_Bonds:                   8
##########                       Formal_Charge:          -0.0100006
##########                     HBond_Acceptors:                   5
##########                        HBond_Donors:                   0
##########                         Heavy_Atoms:                  28
##########                          Grid_Score:          -29.499668
##########                     Grid_vdw_energy:          -28.648733
##########                      Grid_es_energy:           -0.850935
##########           Internal_energy_repulsive:           23.649126

@<TRIPOS>MOLECULE
ZINC001344051361
 53 56 1 0 0
SMALL
USER_CHARGES


@<TRIPOS>ATOM
      1 O1        -12.9643   -0.8322   54.6289 O.2     1  ZINC001344051361   -0.4800
      2 C2        -13.2598   -0.4158   55.7239 C.2     1  ZINC001344051361    0.4800
      3 O3        -12.3087   -0.2418   56.6550 O.3     1  ZINC001344051361   -0.3500
      4 C4        -11.0275   -0.8821   56.4162 C.3     1  ZINC001344051361    0.0700
      5 C5        -10.1932   -0.0164   55.4698 C.3     1  ZINC001344051361   -0.1000
      6 H6        -10.8298    0.7420   55.0142 H       1  ZINC001344051361    0.0900
      7 C7         -9.0706    0.6641   56.2562 C.3     1  ZINC001344051361   -0.1200
      8 C8         -8.2554    1.5559   55.3168 C.3     1  ZINC001344051361   -0.1300
      9 C9         -7.6233    0.6926   54.2206 C.3     1  ZINC001344051361    0.0800
     10 N10        -8.6831   -0.0764   53.5541 N.am    1  ZINC001344051361   -0.6100
     11 C11        -8.8267   -0.0296   52.2148 C.2     1  ZINC001344051361    0.5600
     12 O12        -9.7076   -0.6704   51.6753 O.2     1  ZINC001344051361   -0.5300
     13 C13        -7.9130    0.8011   51.4018 C.ar    1  ZINC001344051361   -0.1300
     14 C14        -8.3291    2.0487   50.9344 C.ar    1  ZINC001344051361   -0.1000
     15 C15        -7.4714    2.8191   50.1766 C.ar    1  ZINC001344051361   -0.1300
     16 C16        -6.2016    2.3572   49.8795 C.ar    1  ZINC001344051361   -0.0900
     17 C17        -5.7830    1.1213   50.3393 C.ar    1  ZINC001344051361   -0.1300
     18 C18        -6.6287    0.3436   51.1033 C.ar    1  ZINC001344051361   -0.0600
     19 C19        -9.5837   -0.8974   54.3748 C.3     1  ZINC001344051361    0.1200
     20 C20       -14.6953   -0.0857   56.0424 C.3     1  ZINC001344051361    0.0200
     21 O21       -15.5216   -1.1991   56.3879 O.3     1  ZINC001344051361   -0.2500
     22 C22       -15.3515   -1.7331   57.6259 C.ar    1  ZINC001344051361    0.1200
     23 C23       -16.0342   -2.8862   57.9851 C.ar    1  ZINC001344051361   -0.2000
     24 C24       -15.8591   -3.4273   59.2441 C.ar    1  ZINC001344051361   -0.0800
     25 C25       -15.0046   -2.8205   60.1460 C.ar    1  ZINC001344051361   -0.1500
     26 C26       -14.3233   -1.6711   59.7905 C.ar    1  ZINC001344051361   -0.0800
     27 C27       -14.4902   -1.1295   58.5306 C.ar    1  ZINC001344051361   -0.1400
     28 C28       -14.9756    1.2463   56.7410 C.3     1  ZINC001344051361   -0.1700
     29 C29       -15.3448    1.0626   55.2676 C.3     1  ZINC001344051361   -0.1100
     30 H30       -10.4985   -1.0001   57.3619 H       1  ZINC001344051361    0.0800
     31 H31       -11.1891   -1.8613   55.9656 H       1  ZINC001344051361    0.0800
     32 H32        -9.5014    1.2725   57.0515 H       1  ZINC001344051361    0.0700
     33 H33        -8.4204   -0.0947   56.6916 H       1  ZINC001344051361    0.0700
     34 H34        -8.9099    2.2996   54.8621 H       1  ZINC001344051361    0.0700
     35 H35        -7.4706    2.0583   55.8821 H       1  ZINC001344051361    0.0800
     36 H36        -7.1242    1.3331   53.4934 H       1  ZINC001344051361    0.1100
     37 H37        -6.9003    0.0088   54.6654 H       1  ZINC001344051361    0.0700
     38 H38        -9.3204    2.4100   51.1650 H       1  ZINC001344051361    0.1400
     39 H39        -7.7921    3.7847   49.8143 H       1  ZINC001344051361    0.1300
     40 H40        -5.5341    2.9641   49.2856 H       1  ZINC001344051361    0.1300
     41 H41        -4.7906    0.7664   50.1035 H       1  ZINC001344051361    0.1300
     42 H42        -6.3007   -0.6209   51.4619 H       1  ZINC001344051361    0.1300
     43 H43        -9.0209   -1.7111   54.8325 H       1  ZINC001344051361    0.0700
     44 H44       -10.3774   -1.3060   53.7493 H       1  ZINC001344051361    0.1000
     45 H45       -16.7023   -3.3601   57.2813 H       1  ZINC001344051361    0.1300
     46 H46       -16.3905   -4.3249   59.5243 H       1  ZINC001344051361    0.1300
     47 H47       -14.8693   -3.2449   61.1299 H       1  ZINC001344051361    0.1300
     48 H48       -13.6567   -1.1987   60.4969 H       1  ZINC001344051361    0.1300
     49 H49       -13.9579   -0.2316   58.2534 H       1  ZINC001344051361    0.1300
     50 H50       -15.7905    1.2736   57.4643 H       1  ZINC001344051361    0.1200
     51 H51       -14.1218    1.8840   56.9701 H       1  ZINC001344051361    0.1200
     52 H52       -14.7339    1.5794   54.5274 H       1  ZINC001344051361    0.1200
     53 H53       -16.4026    0.9690   55.0216 H       1  ZINC001344051361    0.1200
@<TRIPOS>BOND
     1     1     2    2
     2     2     3    1
     3     2    20    1
     4     3     4    1
     5     4     5    1
     6     4    30    1
     7     4    31    1
     8     5     6    1
     9     5    19    1
    10     5     7    1
    11     7     8    1
    12     7    32    1
    13     7    33    1
    14     8     9    1
    15     8    34    1
    16     8    35    1
    17     9    10    1
    18     9    36    1
    19     9    37    1
    20    10    11   am
    21    10    19    1
    22    11    12    2
    23    11    13    1
    24    13    18   ar
    25    13    14   ar
    26    14    15   ar
    27    14    38    1
    28    15    16   ar
    29    15    39    1
    30    16    17   ar
    31    16    40    1
    32    17    18   ar
    33    17    41    1
    34    18    42    1
    35    19    43    1
    36    19    44    1
    37    20    29    1
    38    20    21    1
    39    20    28    1
    40    21    22    1
    41    22    27   ar
    42    22    23   ar
    43    23    24   ar
    44    23    45    1
    45    24    25   ar
    46    24    46    1
    47    25    26   ar
    48    25    47    1
    49    26    27   ar
    50    26    48    1
    51    27    49    1
    52    28    29    1
    53    28    50    1
    54    28    51    1
    55    29    52    1
    56    29    53    1
@<TRIPOS>SUBSTRUCTURE
     1 ZINC001344051361        1 TEMP              0 ****  ****    0 ROOT


##########                                Name:    ZINC001009984555
##########                DOCK_Rotatable_Bonds:                   7
##########                         Heavy_Atoms:                  23
##########                    Molecular_Weight:             338.446
##########                DOCK_Rotatable_Bonds:                   7
##########                       Formal_Charge:           0.0400002
##########                     HBond_Acceptors:                   6
##########                        HBond_Donors:                   1
##########                         Heavy_Atoms:                  23
##########                          Grid_Score:          -29.495390
##########                     Grid_vdw_energy:          -29.079275
##########                      Grid_es_energy:           -0.416115
##########           Internal_energy_repulsive:           14.044424

@<TRIPOS>MOLECULE
ZINC001009984555
 46 47 1 0 0
SMALL
USER_CHARGES


@<TRIPOS>ATOM
      1 C1        -14.9143   -5.0460   57.3289 C.3     1  ZINC001009984555   -0.1400
      2 S2        -15.7960   -4.0155   58.5337 S.3     1  ZINC001009984555   -0.1800
      3 C3        -15.0253   -2.3874   58.3194 C.3     1  ZINC001009984555   -0.1300
      4 C4        -13.7165   -2.3490   59.0655 C.2     1  ZINC001009984555    0.5500
      5 O5        -13.7102   -2.2441   60.2738 O.2     1  ZINC001009984555   -0.5100
      6 N6        -12.5531   -2.4312   58.3902 N.am    1  ZINC001009984555   -0.6100
      7 C7        -12.4155   -2.5530   56.9275 C.3     1  ZINC001009984555    0.1000
      8 C8        -11.0042   -1.9965   56.6143 C.3     1  ZINC001009984555   -0.1100
      9 H9        -11.0133   -0.9072   56.5758 H       1  ZINC001009984555    0.1000
     10 C10       -10.4601   -2.5838   55.3104 C.3     1  ZINC001009984555    0.1300
     11 N11        -9.5432   -1.6253   54.6883 N.am    1  ZINC001009984555   -0.7300
     12 C12        -9.9314   -0.9292   53.6014 C.2     1  ZINC001009984555    0.5600
     13 O13       -11.0427   -1.0958   53.1381 O.2     1  ZINC001009984555   -0.5200
     14 C14        -9.0055    0.0368   52.9726 C.ar    1  ZINC001009984555   -0.1200
     15 C15        -7.8690   -0.4170   52.3018 C.ar    1  ZINC001009984555   -0.0900
     16 C16        -7.0080    0.4887   51.7167 C.ar    1  ZINC001009984555   -0.1000
     17 C17        -7.2682    1.8448   51.7936 C.ar    1  ZINC001009984555   -0.1200
     18 C18        -8.3948    2.3033   52.4580 C.ar    1  ZINC001009984555    0.0900
     19 F19        -8.6428    3.6294   52.5293 F       1  ZINC001009984555   -0.1300
     20 C20        -9.2676    1.4058   53.0425 C.ar    1  ZINC001009984555   -0.0500
     21 C21       -10.4926    1.9045   53.7648 C.3     1  ZINC001009984555   -0.1200
     22 C22       -10.1915   -2.5032   57.8351 C.3     1  ZINC001009984555   -0.1200
     23 C23       -11.2109   -2.4079   58.9897 C.3     1  ZINC001009984555    0.1400
     24 H24       -11.0942   -3.2606   59.6585 H       1  ZINC001009984555    0.0800
     25 C25       -10.9987   -1.1061   59.7650 C.3     1  ZINC001009984555   -0.1700
     26 H26       -13.8504   -5.0517   57.5654 H       1  ZINC001009984555    0.0800
     27 H27       -15.3011   -6.0642   57.3698 H       1  ZINC001009984555    0.1100
     28 H28       -15.0619   -4.6412   56.3277 H       1  ZINC001009984555    0.0800
     29 H29       -14.8448   -2.2075   57.2597 H       1  ZINC001009984555    0.1100
     30 H30       -15.6893   -1.6167   58.7109 H       1  ZINC001009984555    0.1100
     31 H31       -12.4869   -3.5979   56.6254 H       1  ZINC001009984555    0.0800
     32 H32       -13.1780   -1.9587   56.4239 H       1  ZINC001009984555    0.0800
     33 H33        -9.9271   -3.5104   55.5237 H       1  ZINC001009984555    0.0800
     34 H34       -11.2874   -2.7886   54.6310 H       1  ZINC001009984555    0.0800
     35 H35        -8.6567   -1.4915   55.0588 H       1  ZINC001009984555    0.4000
     36 H36        -7.6634   -1.4756   52.2412 H       1  ZINC001009984555    0.1300
     37 H37        -6.1284    0.1376   51.1976 H       1  ZINC001009984555    0.1400
     38 H38        -6.5905    2.5493   51.3344 H       1  ZINC001009984555    0.1400
     39 H39       -11.3521    1.8601   53.0959 H       1  ZINC001009984555    0.0800
     40 H40       -10.6792    1.2795   54.6381 H       1  ZINC001009984555    0.1000
     41 H41       -10.3326    2.9348   54.0828 H       1  ZINC001009984555    0.0600
     42 H42        -9.8701   -3.5336   57.6836 H       1  ZINC001009984555    0.0900
     43 H43        -9.3359   -1.8551   58.0246 H       1  ZINC001009984555    0.0900
     44 H44       -11.1345   -0.2575   59.0943 H       1  ZINC001009984555    0.0600
     45 H45       -11.7217   -1.0457   60.5784 H       1  ZINC001009984555    0.0700
     46 H46        -9.9887   -1.0875   60.1744 H       1  ZINC001009984555    0.0700
@<TRIPOS>BOND
     1     1     2    1
     2     1    26    1
     3     1    27    1
     4     1    28    1
     5     2     3    1
     6     3     4    1
     7     3    29    1
     8     3    30    1
     9     4     5    2
    10     4     6   am
    11     6    23    1
    12     6     7    1
    13     7     8    1
    14     7    31    1
    15     7    32    1
    16     8     9    1
    17     8    10    1
    18     8    22    1
    19    10    11    1
    20    10    33    1
    21    10    34    1
    22    11    12   am
    23    11    35    1
    24    12    13    2
    25    12    14    1
    26    14    20   ar
    27    14    15   ar
    28    15    16   ar
    29    15    36    1
    30    16    17   ar
    31    16    37    1
    32    17    18   ar
    33    17    38    1
    34    18    19    1
    35    18    20   ar
    36    20    21    1
    37    21    39    1
    38    21    40    1
    39    21    41    1
    40    22    23    1
    41    22    42    1
    42    22    43    1
    43    23    24    1
    44    23    25    1
    45    25    44    1
    46    25    45    1
    47    25    46    1
@<TRIPOS>SUBSTRUCTURE
     1 ZINC001009984555        1 TEMP              0 ****  ****    0 ROOT


##########                                Name:    ZINC000050607728
##########                DOCK_Rotatable_Bonds:                  10
##########                         Heavy_Atoms:                  31
##########                    Molecular_Weight:             416.476
##########                DOCK_Rotatable_Bonds:                  10
##########                       Formal_Charge:          -0.0199995
##########                     HBond_Acceptors:                   6
##########                        HBond_Donors:                   1
##########                         Heavy_Atoms:                  31
##########                          Grid_Score:          -29.484007
##########                     Grid_vdw_energy:          -29.020626
##########                      Grid_es_energy:           -0.463382
##########           Internal_energy_repulsive:           11.997869

@<TRIPOS>MOLECULE
ZINC000050607728
 55 57 1 0 0
SMALL
USER_CHARGES


@<TRIPOS>ATOM
      1 C1         -5.3234    1.7227   50.0266 C.3     1  ZINC000050607728    0.0800
      2 N2         -4.9136    2.7276   51.0107 N.am    1  ZINC000050607728   -0.6200
      3 C3         -3.5596    3.2854   50.9676 C.3     1  ZINC000050607728    0.0700
      4 C4         -5.7820    3.1389   51.9557 C.2     1  ZINC000050607728    0.5600
      5 O5         -5.4419    3.9725   52.7723 O.2     1  ZINC000050607728   -0.5300
      6 C6         -7.1484    2.5760   51.9992 C.ar    1  ZINC000050607728   -0.1400
      7 C7         -8.1983    3.2339   51.3568 C.ar    1  ZINC000050607728   -0.0800
      8 C8         -9.4710    2.7030   51.4008 C.ar    1  ZINC000050607728   -0.1300
      9 C9         -9.7077    1.5215   52.0804 C.ar    1  ZINC000050607728   -0.0700
     10 C10        -8.6713    0.8644   52.7200 C.ar    1  ZINC000050607728   -0.1100
     11 C11        -8.9385   -0.4220   53.4582 C.3     1  ZINC000050607728    0.1100
     12 O12        -9.7027   -0.1404   54.6603 O.3     1  ZINC000050607728   -0.3400
     13 C13       -10.2817   -1.1850   55.2730 C.2     1  ZINC000050607728    0.4700
     14 O14       -10.3916   -2.2399   54.6942 O.2     1  ZINC000050607728   -0.5000
     15 C15       -10.7946   -1.0420   56.6827 C.3     1  ZINC000050607728    0.2000
     16 H16       -10.9135    0.0151   56.9207 H       1  ZINC000050607728    0.1400
     17 N17       -12.0888   -1.7180   56.8025 N.am    1  ZINC000050607728   -0.7100
     18 C18       -13.2288   -1.0366   56.5732 C.2     1  ZINC000050607728    0.5700
     19 O19       -13.1832    0.1384   56.2656 O.2     1  ZINC000050607728   -0.5200
     20 C20       -14.5349   -1.7185   56.6958 C.ar    1  ZINC000050607728   -0.1400
     21 C21       -14.5905   -3.0696   57.0417 C.ar    1  ZINC000050607728   -0.0800
     22 C22       -15.8126   -3.6997   57.1548 C.ar    1  ZINC000050607728   -0.1300
     23 C23       -16.9813   -2.9955   56.9259 C.ar    1  ZINC000050607728   -0.0900
     24 C24       -16.9331   -1.6561   56.5823 C.ar    1  ZINC000050607728   -0.1300
     25 C25       -15.7179   -1.0125   56.4718 C.ar    1  ZINC000050607728   -0.0600
     26 C26        -9.8120   -1.6650   57.6405 C.ar    1  ZINC000050607728   -0.1000
     27 C27        -8.8394   -0.8850   58.2375 C.ar    1  ZINC000050607728   -0.1000
     28 C28        -7.9380   -1.4565   59.1161 C.ar    1  ZINC000050607728   -0.1200
     29 C29        -8.0095   -2.8079   59.3978 C.ar    1  ZINC000050607728   -0.1100
     30 C30        -8.9826   -3.5878   58.8014 C.ar    1  ZINC000050607728   -0.1200
     31 C31        -9.8868   -3.0155   57.9262 C.ar    1  ZINC000050607728   -0.0800
     32 C32        -7.3931    1.3812   52.6783 C.ar    1  ZINC000050607728   -0.0400
     33 H33        -5.0977    0.7270   50.4084 H       1  ZINC000050607728    0.0600
     34 H34        -6.3949    1.8078   49.8450 H       1  ZINC000050607728    0.0800
     35 H35        -4.7828    1.8855   49.0943 H       1  ZINC000050607728    0.0700
     36 H36        -3.5320    4.1185   50.2653 H       1  ZINC000050607728    0.0600
     37 H37        -3.2800    3.6378   51.9605 H       1  ZINC000050607728    0.0800
     38 H38        -2.8593    2.5149   50.6450 H       1  ZINC000050607728    0.0700
     39 H39        -8.0148    4.1567   50.8265 H       1  ZINC000050607728    0.1400
     40 H40       -10.2843    3.2111   50.9041 H       1  ZINC000050607728    0.1400
     41 H41       -10.7059    1.1103   52.1123 H       1  ZINC000050607728    0.1300
     42 H42        -9.5049   -1.0978   52.8175 H       1  ZINC000050607728    0.0900
     43 H43        -7.9915   -0.8879   53.7306 H       1  ZINC000050607728    0.0900
     44 H44       -12.1252   -2.6561   57.0467 H       1  ZINC000050607728    0.4100
     45 H45       -13.6789   -3.6206   57.2199 H       1  ZINC000050607728    0.1300
     46 H46       -15.8570   -4.7451   57.4223 H       1  ZINC000050607728    0.1300
     47 H47       -17.9354   -3.4936   57.0155 H       1  ZINC000050607728    0.1300
     48 H48       -17.8491   -1.1122   56.4046 H       1  ZINC000050607728    0.1300
     49 H49       -15.6817    0.0331   56.2039 H       1  ZINC000050607728    0.1400
     50 H50        -8.7836    0.1708   58.0174 H       1  ZINC000050607728    0.1200
     51 H51        -7.1777   -0.8472   59.5821 H       1  ZINC000050607728    0.1200
     52 H52        -7.3048   -3.2545   60.0837 H       1  ZINC000050607728    0.1200
     53 H53        -9.0383   -4.6437   59.0214 H       1  ZINC000050607728    0.1300
     54 H54       -10.6470   -3.6247   57.4603 H       1  ZINC000050607728    0.1300
     55 H55        -6.5850    0.8672   53.1776 H       1  ZINC000050607728    0.1300
@<TRIPOS>BOND
     1     1     2    1
     2     1    33    1
     3     1    34    1
     4     1    35    1
     5     2     3    1
     6     2     4   am
     7     3    36    1
     8     3    37    1
     9     3    38    1
    10     4     5    2
    11     4     6    1
    12     6    32   ar
    13     6     7   ar
    14     7     8   ar
    15     7    39    1
    16     8     9   ar
    17     8    40    1
    18     9    10   ar
    19     9    41    1
    20    10    11    1
    21    10    32   ar
    22    11    12    1
    23    11    42    1
    24    11    43    1
    25    12    13    1
    26    13    14    2
    27    13    15    1
    28    15    16    1
    29    15    17    1
    30    15    26    1
    31    17    18   am
    32    17    44    1
    33    18    19    2
    34    18    20    1
    35    20    25   ar
    36    20    21   ar
    37    21    22   ar
    38    21    45    1
    39    22    23   ar
    40    22    46    1
    41    23    24   ar
    42    23    47    1
    43    24    25   ar
    44    24    48    1
    45    25    49    1
    46    26    31   ar
    47    26    27   ar
    48    27    28   ar
    49    27    50    1
    50    28    29   ar
    51    28    51    1
    52    29    30   ar
    53    29    52    1
    54    30    31   ar
    55    30    53    1
    56    31    54    1
    57    32    55    1
@<TRIPOS>SUBSTRUCTURE
     1 ZINC000050607728        1 TEMP              0 ****  ****    0 ROOT


##########                                Name:    ZINC000549381790
##########                DOCK_Rotatable_Bonds:                   7
##########                         Heavy_Atoms:                  23
##########                    Molecular_Weight:             337.846
##########                DOCK_Rotatable_Bonds:                   7
##########                       Formal_Charge:           0.0300006
##########                     HBond_Acceptors:                   5
##########                        HBond_Donors:                   0
##########                         Heavy_Atoms:                  23
##########                          Grid_Score:          -29.477829
##########                     Grid_vdw_energy:          -28.164543
##########                      Grid_es_energy:           -1.313286
##########           Internal_energy_repulsive:           87.741661

@<TRIPOS>MOLECULE
ZINC000549381790
 47 49 1 0 0
SMALL
USER_CHARGES


@<TRIPOS>ATOM
      1 C1         -7.6561    0.6974   50.5410 C.3     1  ZINC000549381790   -0.1400
      2 C2         -6.4270    1.4011   51.1196 C.3     1  ZINC000549381790    0.1500
      3 H3         -5.5769    0.7190   51.1094 H       1  ZINC000549381790    0.0700
      4 C4         -6.1015    2.6400   50.2796 C.3     1  ZINC000549381790   -0.1300
      5 C5         -4.9600    3.4151   50.9418 C.3     1  ZINC000549381790   -0.1200
      6 C6         -5.3952    3.8766   52.3345 C.3     1  ZINC000549381790   -0.1400
      7 C7         -5.7127    2.6516   53.1979 C.3     1  ZINC000549381790    0.1000
      8 N8         -6.7044    1.8216   52.4998 N.am    1  ZINC000549381790   -0.6100
      9 C9         -7.8485    1.4576   53.1122 C.2     1  ZINC000549381790    0.5200
     10 O10        -8.6591    0.7724   52.5253 O.2     1  ZINC000549381790   -0.5000
     11 C11        -8.1205    1.9020   54.5263 C.3     1  ZINC000549381790    0.0400
     12 O12        -9.2450    1.1868   55.0424 O.3     1  ZINC000549381790   -0.2800
     13 C13        -9.0742    0.5385   56.2255 C.ar    1  ZINC000549381790    0.1100
     14 C14        -8.3894    1.1555   57.2615 C.ar    1  ZINC000549381790   -0.1700
     15 C15        -8.2160    0.4974   58.4641 C.ar    1  ZINC000549381790   -0.1600
     16 C16        -8.7262   -0.7803   58.6352 C.ar    1  ZINC000549381790    0.1100
     17 O17        -8.5554   -1.4280   59.8190 O.3     1  ZINC000549381790   -0.3000
     18 C18        -9.3338   -0.9708   60.9268 C.3     1  ZINC000549381790    0.0900
     19 C19        -8.4357   -0.2028   61.8986 C.3     1  ZINC000549381790   -0.1600
     20 C20        -8.5156    1.3250   61.8770 C.3     1  ZINC000549381790   -0.1700
     21 C21        -9.1150    0.5441   63.0482 C.3     1  ZINC000549381790   -0.1700
     22 C22        -9.4118   -1.3984   57.5983 C.ar    1  ZINC000549381790   -0.0300
     23 Cl23      -10.0513   -2.9981   57.8122 Cl      1  ZINC000549381790   -0.0400
     24 C24        -9.5900   -0.7376   56.3977 C.ar    1  ZINC000549381790   -0.1000
     25 H25        -8.5273    1.3444   50.6440 H       1  ZINC000549381790    0.0600
     26 H26        -7.4875    0.4803   49.4863 H       1  ZINC000549381790    0.0500
     27 H27        -7.8293   -0.2338   51.0804 H       1  ZINC000549381790    0.0800
     28 H28        -5.7993    2.3317   49.2787 H       1  ZINC000549381790    0.0800
     29 H29        -6.9836    3.2770   50.2138 H       1  ZINC000549381790    0.0700
     30 H30        -4.0860    2.7697   51.0296 H       1  ZINC000549381790    0.0700
     31 H31        -4.7098    4.2839   50.3330 H       1  ZINC000549381790    0.0700
     32 H32        -4.5903    4.4484   52.7963 H       1  ZINC000549381790    0.0800
     33 H33        -6.2839    4.5018   52.2494 H       1  ZINC000549381790    0.0700
     34 H34        -4.8033    2.0727   53.3592 H       1  ZINC000549381790    0.0800
     35 H35        -6.1171    2.9754   54.1569 H       1  ZINC000549381790    0.0800
     36 H36        -7.2463    1.6999   55.1452 H       1  ZINC000549381790    0.0900
     37 H37        -8.3337    2.9708   54.5367 H       1  ZINC000549381790    0.0900
     38 H38        -7.9913    2.1506   57.1284 H       1  ZINC000549381790    0.1400
     39 H39        -7.6826    0.9782   59.2707 H       1  ZINC000549381790    0.1400
     40 H40       -10.1261   -0.3140   60.5678 H       1  ZINC000549381790    0.0700
     41 H41        -9.7749   -1.8263   61.4385 H       1  ZINC000549381790    0.0700
     42 H42        -7.4632   -0.6535   62.0963 H       1  ZINC000549381790    0.1200
     43 H43        -7.5953    1.8796   62.0604 H       1  ZINC000549381790    0.1000
     44 H44        -9.2078    1.7828   61.1705 H       1  ZINC000549381790    0.1000
     45 H45       -10.2017    0.4882   63.1122 H       1  ZINC000549381790    0.1000
     46 H46        -8.5892    0.5850   64.0021 H       1  ZINC000549381790    0.1000
     47 H47       -10.1233   -1.2180   55.5908 H       1  ZINC000549381790    0.1500
@<TRIPOS>BOND
     1     1     2    1
     2     1    25    1
     3     1    26    1
     4     1    27    1
     5     2     3    1
     6     2     8    1
     7     2     4    1
     8     4     5    1
     9     4    28    1
    10     4    29    1
    11     5     6    1
    12     5    30    1
    13     5    31    1
    14     6     7    1
    15     6    32    1
    16     6    33    1
    17     7     8    1
    18     7    34    1
    19     7    35    1
    20     8     9   am
    21     9    10    2
    22     9    11    1
    23    11    12    1
    24    11    36    1
    25    11    37    1
    26    12    13    1
    27    13    24   ar
    28    13    14   ar
    29    14    15   ar
    30    14    38    1
    31    15    16   ar
    32    15    39    1
    33    16    17    1
    34    16    22   ar
    35    17    18    1
    36    18    19    1
    37    18    40    1
    38    18    41    1
    39    19    21    1
    40    19    20    1
    41    19    42    1
    42    20    21    1
    43    20    43    1
    44    20    44    1
    45    21    45    1
    46    21    46    1
    47    22    23    1
    48    22    24   ar
    49    24    47    1
@<TRIPOS>SUBSTRUCTURE
     1 ZINC000549381790        1 TEMP              0 ****  ****    0 ROOT


##########                                Name:    ZINC000742270208
##########                DOCK_Rotatable_Bonds:                   5
##########                         Heavy_Atoms:                  25
##########                    Molecular_Weight:             376.328
##########                DOCK_Rotatable_Bonds:                   5
##########                       Formal_Charge:                0.02
##########                     HBond_Acceptors:                   9
##########                        HBond_Donors:                   0
##########                         Heavy_Atoms:                  25
##########                          Grid_Score:          -29.473499
##########                     Grid_vdw_energy:          -27.168449
##########                      Grid_es_energy:           -2.305051
##########           Internal_energy_repulsive:           15.677408

@<TRIPOS>MOLECULE
ZINC000742270208
 37 38 1 0 0
SMALL
USER_CHARGES


@<TRIPOS>ATOM
      1 C1         -8.4431    2.2703   67.6567 C.3     1  ZINC000742270208   -0.1400
      2 C2         -7.2790    2.3097   66.6645 C.3     1  ZINC000742270208   -0.1400
      3 C3         -5.9897    2.6706   67.4051 C.3     1  ZINC000742270208   -0.1400
      4 C4         -7.1249    0.9577   66.0171 C.2     1  ZINC000742270208    0.4000
      5 O5         -6.4026    0.1235   66.5199 O.2     1  ZINC000742270208   -0.4300
      6 C6         -7.8510    0.6497   64.7747 C.ar    1  ZINC000742270208   -0.1000
      7 C7         -7.2379   -0.1075   63.7715 C.ar    1  ZINC000742270208   -0.0900
      8 C8         -7.9249   -0.3918   62.6102 C.ar    1  ZINC000742270208   -0.0200
      9 C9         -9.2178    0.0703   62.4359 C.ar    1  ZINC000742270208   -0.6800
     10 S10       -10.0872   -0.2985   60.9484 S.o2    1  ZINC000742270208    2.6600
     11 O11       -11.3083    0.4259   61.0072 O.2     1  ZINC000742270208   -0.9300
     12 O12        -9.1496   -0.1569   59.8900 O.2     1  ZINC000742270208   -0.9000
     13 O13       -10.4598   -1.7734   60.9981 O.3     1  ZINC000742270208   -0.6400
     14 C14       -11.1073   -2.2182   59.8879 C.ar    1  ZINC000742270208    0.0500
     15 C15       -10.3888   -2.7879   58.8458 C.ar    1  ZINC000742270208    0.0900
     16 F16        -9.0454   -2.9012   58.9335 F       1  ZINC000742270208   -0.0900
     17 C17       -11.0504   -3.2408   57.7159 C.ar    1  ZINC000742270208    0.1100
     18 F18       -10.3516   -3.7954   56.7014 F       1  ZINC000742270208   -0.1000
     19 C19       -12.4270   -3.1258   57.6260 C.ar    1  ZINC000742270208   -0.1100
     20 C20       -13.1453   -2.5574   58.6641 C.ar    1  ZINC000742270208    0.1200
     21 F21       -14.4887   -2.4463   58.5740 F       1  ZINC000742270208   -0.1000
     22 C22       -12.4881   -2.1081   59.7979 C.ar    1  ZINC000742270208    0.1200
     23 F23       -13.1895   -1.5540   60.8108 F       1  ZINC000742270208   -0.0900
     24 C24        -9.8316    0.8201   63.4242 C.ar    1  ZINC000742270208   -0.0300
     25 C25        -9.1600    1.1077   64.5937 C.ar    1  ZINC000742270208   -0.0800
     26 H26        -8.5545    3.2483   68.1251 H       1  ZINC000742270208    0.0700
     27 H27        -9.3615    2.0132   67.1292 H       1  ZINC000742270208    0.0600
     28 H28        -8.2423    1.5214   68.4228 H       1  ZINC000742270208    0.0600
     29 H29        -7.4798    3.0587   65.8984 H       1  ZINC000742270208    0.1000
     30 H30        -5.7889    1.9216   68.1712 H       1  ZINC000742270208    0.0700
     31 H31        -5.1604    2.6985   66.6983 H       1  ZINC000742270208    0.0600
     32 H32        -6.1012    3.6485   67.8734 H       1  ZINC000742270208    0.0700
     33 H33        -6.2287   -0.4681   63.9057 H       1  ZINC000742270208    0.1500
     34 H34        -7.4527   -0.9763   61.8344 H       1  ZINC000742270208    0.1500
     35 H35       -12.9414   -3.4797   56.7447 H       1  ZINC000742270208    0.1900
     36 H36       -10.8407    1.1772   63.2808 H       1  ZINC000742270208    0.1500
     37 H37        -9.6403    1.6929   65.3640 H       1  ZINC000742270208    0.1500
@<TRIPOS>BOND
     1     1     2    1
     2     1    26    1
     3     1    27    1
     4     1    28    1
     5     2     3    1
     6     2     4    1
     7     2    29    1
     8     3    30    1
     9     3    31    1
    10     3    32    1
    11     4     5    2
    12     4     6    1
    13     6    25   ar
    14     6     7   ar
    15     7     8   ar
    16     7    33    1
    17     8     9   ar
    18     8    34    1
    19     9    10    1
    20     9    24   ar
    21    10    11    2
    22    10    12    2
    23    10    13    1
    24    13    14    1
    25    14    22   ar
    26    14    15   ar
    27    15    16    1
    28    15    17   ar
    29    17    18    1
    30    17    19   ar
    31    19    20   ar
    32    19    35    1
    33    20    21    1
    34    20    22   ar
    35    22    23    1
    36    24    25   ar
    37    24    36    1
    38    25    37    1
@<TRIPOS>SUBSTRUCTURE
     1 ZINC000742270208        1 TEMP              0 ****  ****    0 ROOT


##########                                Name:    ZINC000417533280
##########                DOCK_Rotatable_Bonds:                   9
##########                         Heavy_Atoms:                  26
##########                    Molecular_Weight:             367.439
##########                DOCK_Rotatable_Bonds:                   9
##########                       Formal_Charge:         -0.00999999
##########                     HBond_Acceptors:                   7
##########                        HBond_Donors:                   2
##########                         Heavy_Atoms:                  26
##########                          Grid_Score:          -29.472759
##########                     Grid_vdw_energy:          -29.700174
##########                      Grid_es_energy:            0.227416
##########           Internal_energy_repulsive:           12.645798

@<TRIPOS>MOLECULE
ZINC000417533280
 53 54 1 0 0
SMALL
USER_CHARGES


@<TRIPOS>ATOM
      1 C1          0.3808    0.2464   48.3406 C.3     1  ZINC000417533280   -0.1600
      2 C2         -1.1442    0.2028   48.4566 C.3     1  ZINC000417533280   -0.1200
      3 C3         -1.6169    1.3192   49.3899 C.3     1  ZINC000417533280   -0.1200
      4 C4         -3.1457    1.3196   49.4512 C.3     1  ZINC000417533280   -0.1300
      5 C5         -3.6201    2.4691   50.3425 C.3     1  ZINC000417533280    0.1200
      6 N6         -4.8726    2.0912   51.0016 N.am    1  ZINC000417533280   -0.7300
      7 C7         -6.0243    2.0756   50.3019 C.2     1  ZINC000417533280    0.5200
      8 O8         -6.0235    2.3729   49.1261 O.2     1  ZINC000417533280   -0.5400
      9 C9         -7.3131    1.6885   50.9804 C.3     1  ZINC000417533280   -0.1100
     10 C10        -7.1441    0.3260   51.6566 C.3     1  ZINC000417533280   -0.1300
     11 C11        -8.4660   -0.0800   52.3157 C.3     1  ZINC000417533280    0.1300
     12 N12        -8.8920    0.9948   53.2223 N.am    1  ZINC000417533280   -0.6200
     13 C13        -9.1784    0.7315   54.5127 C.2     1  ZINC000417533280    0.7100
     14 O14        -9.5300    1.6298   55.2529 O.2     1  ZINC000417533280   -0.5600
     15 N15        -9.0752   -0.5275   54.9826 N.am    1  ZINC000417533280   -0.6800
     16 C16        -9.3728   -0.8011   56.3235 C.ar    1  ZINC000417533280    0.1900
     17 C17        -8.4994   -0.3996   57.3250 C.ar    1  ZINC000417533280   -0.1100
     18 C18        -8.7940   -0.6694   58.6477 C.ar    1  ZINC000417533280   -0.1100
     19 C19        -9.9592   -1.3402   58.9756 C.ar    1  ZINC000417533280    0.0500
     20 F20       -10.2454   -1.6026   60.2696 F       1  ZINC000417533280   -0.1300
     21 C21       -10.8339   -1.7427   57.9772 C.ar    1  ZINC000417533280    0.0900
     22 F22       -11.9710   -2.3973   58.2989 F       1  ZINC000417533280   -0.1200
     23 C23       -10.5445   -1.4693   56.6529 C.ar    1  ZINC000417533280   -0.1300
     24 C24       -11.4945   -1.9059   55.5675 C.3     1  ZINC000417533280   -0.1200
     25 C25        -8.9994    2.3622   52.6956 C.3     1  ZINC000417533280    0.1100
     26 C26        -7.6715    2.7408   52.0322 C.3     1  ZINC000417533280   -0.1200
     27 H27         0.6870    1.2116   47.9369 H       1  ZINC000417533280    0.0500
     28 H28         0.8243    0.1078   49.3266 H       1  ZINC000417533280    0.0500
     29 H29         0.7175   -0.5489   47.6757 H       1  ZINC000417533280    0.0500
     30 H30        -1.5877    0.3414   47.4706 H       1  ZINC000417533280    0.0600
     31 H31        -1.4504   -0.7623   48.8603 H       1  ZINC000417533280    0.0600
     32 H32        -1.2132    1.1530   50.3886 H       1  ZINC000417533280    0.0700
     33 H33        -1.2682    2.2804   49.0123 H       1  ZINC000417533280    0.0700
     34 H34        -3.5495    1.4479   48.4470 H       1  ZINC000417533280    0.0700
     35 H35        -3.4929    0.3725   49.8642 H       1  ZINC000417533280    0.0700
     36 H36        -2.8620    2.6808   51.0966 H       1  ZINC000417533280    0.0700
     37 H37        -3.7840    3.3577   49.7327 H       1  ZINC000417533280    0.0700
     38 H38        -4.8730    1.8522   51.9417 H       1  ZINC000417533280    0.4000
     39 H39        -8.1102    1.6296   50.2394 H       1  ZINC000417533280    0.1000
     40 H40        -6.8659   -0.4183   50.9104 H       1  ZINC000417533280    0.0800
     41 H41        -6.3640    0.3905   52.4151 H       1  ZINC000417533280    0.0800
     42 H42        -9.2249   -0.2332   51.5485 H       1  ZINC000417533280    0.0700
     43 H43        -8.3245   -1.0008   52.8815 H       1  ZINC000417533280    0.1000
     44 H44        -8.7948   -1.2440   54.3920 H       1  ZINC000417533280    0.4100
     45 H45        -7.5896    0.1236   57.0702 H       1  ZINC000417533280    0.1700
     46 H46        -8.1140   -0.3571   59.4264 H       1  ZINC000417533280    0.1500
     47 H47       -12.2219   -1.1156   55.3818 H       1  ZINC000417533280    0.0800
     48 H48       -10.9348   -2.1066   54.6540 H       1  ZINC000417533280    0.0700
     49 H49       -12.0138   -2.8112   55.8818 H       1  ZINC000417533280    0.0800
     50 H50        -9.8019    2.4082   51.9594 H       1  ZINC000417533280    0.0800
     51 H51        -9.2099    3.0528   53.5123 H       1  ZINC000417533280    0.0800
     52 H52        -6.8865    2.7826   52.7873 H       1  ZINC000417533280    0.0800
     53 H53        -7.7688    3.7152   51.5535 H       1  ZINC000417533280    0.0900
@<TRIPOS>BOND
     1     1     2    1
     2     1    27    1
     3     1    28    1
     4     1    29    1
     5     2     3    1
     6     2    30    1
     7     2    31    1
     8     3     4    1
     9     3    32    1
    10     3    33    1
    11     4     5    1
    12     4    34    1
    13     4    35    1
    14     5     6    1
    15     5    36    1
    16     5    37    1
    17     6     7   am
    18     6    38    1
    19     7     8    2
    20     7     9    1
    21     9    26    1
    22     9    10    1
    23     9    39    1
    24    10    11    1
    25    10    40    1
    26    10    41    1
    27    11    12    1
    28    11    42    1
    29    11    43    1
    30    12    13   am
    31    12    25    1
    32    13    14    2
    33    13    15   am
    34    15    16    1
    35    15    44    1
    36    16    23   ar
    37    16    17   ar
    38    17    18   ar
    39    17    45    1
    40    18    19   ar
    41    18    46    1
    42    19    20    1
    43    19    21   ar
    44    21    22    1
    45    21    23   ar
    46    23    24    1
    47    24    47    1
    48    24    48    1
    49    24    49    1
    50    25    26    1
    51    25    50    1
    52    25    51    1
    53    26    52    1
    54    26    53    1
@<TRIPOS>SUBSTRUCTURE
     1 ZINC000417533280        1 TEMP              0 ****  ****    0 ROOT


##########                                Name:    ZINC000484424341
##########                DOCK_Rotatable_Bonds:                   7
##########                         Heavy_Atoms:                  26
##########                    Molecular_Weight:             359.425
##########                DOCK_Rotatable_Bonds:                   7
##########                       Formal_Charge:          -0.0100009
##########                     HBond_Acceptors:                   7
##########                        HBond_Donors:                   1
##########                         Heavy_Atoms:                  26
##########                          Grid_Score:          -29.448713
##########                     Grid_vdw_energy:          -29.778734
##########                      Grid_es_energy:            0.330020
##########           Internal_energy_repulsive:           21.938448

@<TRIPOS>MOLECULE
ZINC000484424341
 51 53 1 0 0
SMALL
USER_CHARGES


@<TRIPOS>ATOM
      1 C1          1.8019    3.7118   48.7095 C.3     1  ZINC000484424341    0.0300
      2 O2          2.2773    2.6644   49.5573 O.3     1  ZINC000484424341   -0.3800
      3 C3          1.3350    2.2438   50.5459 C.3     1  ZINC000484424341    0.1300
      4 H4          1.0963    3.0823   51.2001 H       1  ZINC000484424341    0.0700
      5 C5          1.9372    1.1066   51.3733 C.3     1  ZINC000484424341   -0.1700
      6 C6          0.0782    1.7614   49.8686 C.ar    1  ZINC000484424341   -0.0700
      7 C7          0.1409    0.7294   48.9506 C.ar    1  ZINC000484424341   -0.1000
      8 C8         -1.0102    0.2835   48.3267 C.ar    1  ZINC000484424341   -0.1000
      9 C9         -2.2264    0.8680   48.6189 C.ar    1  ZINC000484424341   -0.1100
     10 C10        -2.2932    1.9053   49.5411 C.ar    1  ZINC000484424341    0.1400
     11 N11        -3.5224    2.4988   49.8396 N.am    1  ZINC000484424341   -0.6400
     12 C12        -4.5594    1.7364   50.2396 C.2     1  ZINC000484424341    0.5100
     13 O13        -4.4254    0.5343   50.3406 O.2     1  ZINC000484424341   -0.4900
     14 C14        -5.8733    2.3708   50.5586 C.2     1  ZINC000484424341    0.5200
     15 O15        -6.0377    3.5573   50.3631 O.2     1  ZINC000484424341   -0.5200
     16 N16        -6.8764    1.6256   51.0635 N.am    1  ZINC000484424341   -0.5800
     17 C17        -6.8140    0.1846   51.3482 C.3     1  ZINC000484424341    0.1100
     18 C18        -8.1800   -0.2256   51.9377 C.3     1  ZINC000484424341   -0.1500
     19 C19        -8.7420    1.1157   52.4785 C.3     1  ZINC000484424341    0.1500
     20 H20        -8.3371    1.3393   53.4656 H       1  ZINC000484424341    0.1100
     21 N21       -10.2066    1.0982   52.5064 N.am    1  ZINC000484424341   -0.6100
     22 C22       -11.0173   -0.1132   52.6775 C.3     1  ZINC000484424341    0.1000
     23 C23       -12.4238    0.3852   53.0770 C.3     1  ZINC000484424341   -0.1300
     24 C24       -12.4411    1.8048   52.4643 C.3     1  ZINC000484424341   -0.1600
     25 C25       -10.9805    2.1905   52.3844 C.2     1  ZINC000484424341    0.5200
     26 O26       -10.5680    3.3199   52.2258 O.2     1  ZINC000484424341   -0.5200
     27 C27        -8.2160    2.1218   51.4279 C.3     1  ZINC000484424341    0.0900
     28 C28        -1.1360    2.3469   50.1699 C.ar    1  ZINC000484424341   -0.1300
     29 H29         1.5579    4.5857   49.3135 H       1  ZINC000484424341    0.0400
     30 H30         2.5752    3.9738   47.9872 H       1  ZINC000484424341    0.0900
     31 H31         0.9102    3.3748   48.1809 H       1  ZINC000484424341    0.0400
     32 H32         2.1759    0.2681   50.7191 H       1  ZINC000484424341    0.0700
     33 H33         2.8462    1.4555   51.8631 H       1  ZINC000484424341    0.0600
     34 H34         1.2183    0.7858   52.1274 H       1  ZINC000484424341    0.0700
     35 H35         1.0910    0.2707   48.7198 H       1  ZINC000484424341    0.1300
     36 H36        -0.9574   -0.5225   47.6097 H       1  ZINC000484424341    0.1300
     37 H37        -3.1248    0.5196   48.1312 H       1  ZINC000484424341    0.1300
     38 H38        -3.6294    3.4595   49.7589 H       1  ZINC000484424341    0.4200
     39 H39        -6.6269   -0.3674   50.4272 H       1  ZINC000484424341    0.0800
     40 H40        -6.0229   -0.0166   52.0707 H       1  ZINC000484424341    0.0800
     41 H41        -8.8290   -0.6306   51.1614 H       1  ZINC000484424341    0.0900
     42 H42        -8.0505   -0.9439   52.7474 H       1  ZINC000484424341    0.0900
     43 H43       -11.0660   -0.6697   51.7416 H       1  ZINC000484424341    0.0800
     44 H44       -10.6000   -0.7378   53.4673 H       1  ZINC000484424341    0.0800
     45 H45       -13.1994   -0.2401   52.6348 H       1  ZINC000484424341    0.0900
     46 H46       -12.5295    0.4269   54.1611 H       1  ZINC000484424341    0.0800
     47 H47       -12.8896    1.7861   51.4710 H       1  ZINC000484424341    0.1100
     48 H48       -12.9799    2.4942   53.1142 H       1  ZINC000484424341    0.1000
     49 H49        -8.1500    3.1208   51.8589 H       1  ZINC000484424341    0.0900
     50 H50        -8.8637    2.1282   50.5512 H       1  ZINC000484424341    0.0900
     51 H51        -1.1844    3.1526   50.8874 H       1  ZINC000484424341    0.1300
@<TRIPOS>BOND
     1     1     2    1
     2     1    29    1
     3     1    30    1
     4     1    31    1
     5     2     3    1
     6     3     4    1
     7     3     5    1
     8     3     6    1
     9     5    32    1
    10     5    33    1
    11     5    34    1
    12     6    28   ar
    13     6     7   ar
    14     7     8   ar
    15     7    35    1
    16     8     9   ar
    17     8    36    1
    18     9    10   ar
    19     9    37    1
    20    10    11    1
    21    10    28   ar
    22    11    12   am
    23    11    38    1
    24    12    13    2
    25    12    14    1
    26    14    15    2
    27    14    16   am
    28    16    27    1
    29    16    17    1
    30    17    18    1
    31    17    39    1
    32    17    40    1
    33    18    19    1
    34    18    41    1
    35    18    42    1
    36    19    20    1
    37    19    21    1
    38    19    27    1
    39    21    25   am
    40    21    22    1
    41    22    23    1
    42    22    43    1
    43    22    44    1
    44    23    24    1
    45    23    45    1
    46    23    46    1
    47    24    25    1
    48    24    47    1
    49    24    48    1
    50    25    26    2
    51    27    49    1
    52    27    50    1
    53    28    51    1
@<TRIPOS>SUBSTRUCTURE
     1 ZINC000484424341        1 TEMP              0 ****  ****    0 ROOT


##########                                Name:    ZINC000461336108
##########                DOCK_Rotatable_Bonds:                   5
##########                         Heavy_Atoms:                  26
##########                    Molecular_Weight:             373.522
##########                DOCK_Rotatable_Bonds:                   5
##########                       Formal_Charge:        -3.42727e-07
##########                     HBond_Acceptors:                   7
##########                        HBond_Donors:                   0
##########                         Heavy_Atoms:                  26
##########                          Grid_Score:          -29.438999
##########                     Grid_vdw_energy:          -29.328215
##########                      Grid_es_energy:           -0.110784
##########           Internal_energy_repulsive:           11.974330

@<TRIPOS>MOLECULE
ZINC000461336108
 53 56 1 0 0
SMALL
USER_CHARGES


@<TRIPOS>ATOM
      1 C1         -9.7990    2.4361   52.6668 C.3     1  ZINC000461336108   -0.1300
      2 C2         -8.9731    1.4496   51.8387 C.3     1  ZINC000461336108    0.0700
      3 H3         -9.6410    0.8425   51.2275 H       1  ZINC000461336108    0.0800
      4 C4         -8.0346    2.2111   50.9461 C.2     1  ZINC000461336108    0.5300
      5 O5         -8.4499    3.1941   50.3698 O.2     1  ZINC000461336108   -0.5300
      6 N6         -6.7603    1.8507   50.7609 N.am    1  ZINC000461336108   -0.6100
      7 C7         -5.9366    2.6390   49.8409 C.3     1  ZINC000461336108    0.0700
      8 C8         -6.1531    0.7066   51.4349 C.3     1  ZINC000461336108    0.1200
      9 C9         -7.2420   -0.2240   51.9720 C.3     1  ZINC000461336108    0.0400
     10 N10        -8.2086    0.5769   52.7398 N.3     1  ZINC000461336108   -0.4300
     11 C11        -9.0554   -0.2372   53.4748 C.2     1  ZINC000461336108    0.3300
     12 N12        -9.9998   -1.0134   52.9977 N.2     1  ZINC000461336108   -0.2500
     13 N13       -10.5891   -1.6269   53.9611 N.2     1  ZINC000461336108   -0.2800
     14 C14       -10.0602   -1.2815   55.1007 C.2     1  ZINC000461336108    0.2000
     15 C15       -10.4694   -1.7795   56.4628 C.3     1  ZINC000461336108   -0.0300
     16 C16       -11.8310   -2.4704   56.3655 C.3     1  ZINC000461336108   -0.0900
     17 C17       -12.1546   -3.2186   57.6826 C.3     1  ZINC000461336108   -0.1200
     18 C18       -13.7006   -3.3091   57.6532 C.3     1  ZINC000461336108   -0.1200
     19 C19       -14.1474   -1.9589   57.0556 C.3     1  ZINC000461336108   -0.1300
     20 C20       -12.9587   -1.4257   56.2369 C.3     1  ZINC000461336108   -0.1200
     21 N21        -9.0609   -0.3878   54.8311 N.pl3   1  ZINC000461336108   -0.4900
     22 C22        -8.1839    0.2767   55.7982 C.3     1  ZINC000461336108    0.1700
     23 C23        -8.8190    1.5672   56.2483 C.2     1  ZINC000461336108   -0.2400
     24 C24       -10.1304    1.8087   56.2800 C.2     1  ZINC000461336108   -0.0900
     25 C25       -10.4805    3.0694   56.7321 C.2     1  ZINC000461336108   -0.1400
     26 C26        -9.4534    3.8514   57.0676 C.2     1  ZINC000461336108   -0.2000
     27 S27        -7.9445    2.9823   56.8192 S.3     1  ZINC000461336108    0.1200
     28 H28        -9.1325    3.0440   53.2786 H       1  ZINC000461336108    0.0800
     29 H29       -10.3698    3.0819   51.9996 H       1  ZINC000461336108    0.0800
     30 H30       -10.4831    1.8851   53.3122 H       1  ZINC000461336108    0.0700
     31 H31        -6.5329    3.4506   49.4239 H       1  ZINC000461336108    0.0900
     32 H32        -5.0851    3.0538   50.3802 H       1  ZINC000461336108    0.0700
     33 H33        -5.5790    1.9991   49.0342 H       1  ZINC000461336108    0.0600
     34 H34        -5.5271    0.1612   50.7286 H       1  ZINC000461336108    0.0900
     35 H35        -5.5381    1.0594   52.2629 H       1  ZINC000461336108    0.0900
     36 H36        -7.7491   -0.7120   51.1397 H       1  ZINC000461336108    0.0500
     37 H37        -6.7928   -0.9760   52.6208 H       1  ZINC000461336108    0.1100
     38 H38        -9.7272   -2.4891   56.8284 H       1  ZINC000461336108    0.0800
     39 H39       -10.5376   -0.9378   57.1521 H       1  ZINC000461336108    0.1000
     40 H40       -11.8494   -3.1577   55.5196 H       1  ZINC000461336108    0.0900
     41 H41       -11.7093   -4.2134   57.6813 H       1  ZINC000461336108    0.0600
     42 H42       -11.8177   -2.6444   58.5457 H       1  ZINC000461336108    0.0600
     43 H43       -14.0224   -4.1333   57.0165 H       1  ZINC000461336108    0.0700
     44 H44       -14.0950   -3.4289   58.6623 H       1  ZINC000461336108    0.0700
     45 H45       -15.0115   -2.1051   56.4075 H       1  ZINC000461336108    0.0700
     46 H46       -14.3936   -1.2600   57.8549 H       1  ZINC000461336108    0.0600
     47 H47       -12.6280   -0.4680   56.6389 H       1  ZINC000461336108    0.0700
     48 H48       -13.2459   -1.3131   55.1914 H       1  ZINC000461336108    0.0700
     49 H49        -8.0339   -0.3742   56.6597 H       1  ZINC000461336108    0.1200
     50 H50        -7.2222    0.4886   55.3310 H       1  ZINC000461336108    0.1000
     51 H51       -10.8635    1.0764   55.9757 H       1  ZINC000461336108    0.1400
     52 H52       -11.5074    3.3950   56.8073 H       1  ZINC000461336108    0.1500
     53 H53        -9.5358    4.8625   57.4383 H       1  ZINC000461336108    0.1700
@<TRIPOS>BOND
     1     1     2    1
     2     1    28    1
     3     1    29    1
     4     1    30    1
     5     2     3    1
     6     2    10    1
     7     2     4    1
     8     4     5    2
     9     4     6   am
    10     6     7    1
    11     6     8    1
    12     7    31    1
    13     7    32    1
    14     7    33    1
    15     8     9    1
    16     8    34    1
    17     8    35    1
    18     9    10    1
    19     9    36    1
    20     9    37    1
    21    10    11    1
    22    11    21    1
    23    11    12    2
    24    12    13    1
    25    13    14    2
    26    14    15    1
    27    14    21    1
    28    15    16    1
    29    15    38    1
    30    15    39    1
    31    16    20    1
    32    16    17    1
    33    16    40    1
    34    17    18    1
    35    17    41    1
    36    17    42    1
    37    18    19    1
    38    18    43    1
    39    18    44    1
    40    19    20    1
    41    19    45    1
    42    19    46    1
    43    20    47    1
    44    20    48    1
    45    21    22    1
    46    22    23    1
    47    22    49    1
    48    22    50    1
    49    23    27    1
    50    23    24    2
    51    24    25    1
    52    24    51    1
    53    25    26    2
    54    25    52    1
    55    26    27    1
    56    26    53    1
@<TRIPOS>SUBSTRUCTURE
     1 ZINC000461336108        1 TEMP              0 ****  ****    0 ROOT


##########                                Name:    ZINC000821214121
##########                DOCK_Rotatable_Bonds:                  10
##########                         Heavy_Atoms:                  23
##########                    Molecular_Weight:             338.434
##########                DOCK_Rotatable_Bonds:                  10
##########                       Formal_Charge:          0.00999954
##########                     HBond_Acceptors:                   9
##########                        HBond_Donors:                   3
##########                         Heavy_Atoms:                  23
##########                          Grid_Score:          -29.425344
##########                     Grid_vdw_energy:          -28.615150
##########                      Grid_es_energy:           -0.810194
##########           Internal_energy_repulsive:            8.430031

@<TRIPOS>MOLECULE
ZINC000821214121
 45 46 1 0 0
SMALL
USER_CHARGES


@<TRIPOS>ATOM
      1 C1         -8.4788   -0.0909   62.3722 C.3     1  ZINC000821214121   -0.1500
      2 C2         -9.6675   -0.2248   61.4184 C.3     1  ZINC000821214121    0.0500
      3 N3         -9.1824   -0.2494   60.0320 N.3     1  ZINC000821214121   -0.5200
      4 C4         -9.9447   -1.2112   59.2245 C.3     1  ZINC000821214121    0.0600
      5 C5         -9.4919   -2.6330   59.5628 C.3     1  ZINC000821214121   -0.1200
      6 C6         -9.9512   -3.5902   58.4612 C.3     1  ZINC000821214121    0.0800
      7 O7         -9.5618   -4.9238   58.7960 O.3     1  ZINC000821214121   -0.5700
      8 C8         -9.2275    1.0918   59.4346 C.3     1  ZINC000821214121    0.0400
      9 C9         -8.4880    1.0821   58.1216 C.2     1  ZINC000821214121    0.5000
     10 O10        -7.3806    0.5916   58.0528 O.2     1  ZINC000821214121   -0.4800
     11 N11        -9.0567    1.6182   57.0237 N.am    1  ZINC000821214121   -0.6300
     12 C12        -8.3734    1.6078   55.8091 C.2     1  ZINC000821214121    0.0800
     13 C13        -8.6144    0.7509   54.7767 C.2     1  ZINC000821214121   -0.1000
     14 C14        -9.6603   -0.2987   54.8265 C.2     1  ZINC000821214121    0.2900
     15 N15        -9.5319   -1.5070   55.3437 N.2     1  ZINC000821214121   -0.3300
     16 N16       -10.7738   -2.1375   55.1619 N.pl3   1  ZINC000821214121   -0.2900
     17 N17       -11.5448   -1.2937   54.5656 N.2     1  ZINC000821214121    0.0200
     18 N18       -10.9099   -0.1946   54.3611 N.2     1  ZINC000821214121   -0.2900
     19 C19        -7.7899    0.9492   53.6693 C.2     1  ZINC000821214121   -0.0500
     20 C20        -7.8936    0.1087   52.4227 C.3     1  ZINC000821214121   -0.1000
     21 C21        -6.9066    1.9339   53.7943 C.2     1  ZINC000821214121   -0.2400
     22 C22        -5.9114    2.3380   52.7372 C.3     1  ZINC000821214121   -0.0800
     23 S23        -7.0706    2.7027   55.3663 S.3     1  ZINC000821214121    0.2600
     24 H24        -7.7598   -0.8849   62.1705 H       1  ZINC000821214121    0.0700
     25 H25        -8.0016    0.8779   62.2243 H       1  ZINC000821214121    0.0500
     26 H26        -8.8284   -0.1702   63.4017 H       1  ZINC000821214121    0.0600
     27 H27       -10.2028   -1.1499   61.6325 H       1  ZINC000821214121    0.0900
     28 H28       -10.3391    0.6230   61.5533 H       1  ZINC000821214121    0.0400
     29 H29       -11.0075   -1.1068   59.4425 H       1  ZINC000821214121    0.0400
     30 H30        -9.7698   -1.0164   58.1664 H       1  ZINC000821214121    0.0800
     31 H31        -8.4048   -2.6601   59.6378 H       1  ZINC000821214121    0.0800
     32 H32        -9.9292   -2.9370   60.5138 H       1  ZINC000821214121    0.0700
     33 H33       -11.0359   -3.5414   58.3664 H       1  ZINC000821214121    0.0400
     34 H34        -9.4905   -3.3038   57.5157 H       1  ZINC000821214121    0.0500
     35 H35        -8.6115   -5.0321   58.9386 H       1  ZINC000821214121    0.3800
     36 H36       -10.2651    1.3794   59.2650 H       1  ZINC000821214121    0.0700
     37 H37        -8.7583    1.8066   60.1106 H       1  ZINC000821214121    0.1200
     38 H38        -9.9418    2.0115   57.0788 H       1  ZINC000821214121    0.4200
     39 H39       -11.0073   -3.0388   55.4336 H       1  ZINC000821214121    0.4700
     40 H40        -8.6011    0.5682   51.7326 H       1  ZINC000821214121    0.0700
     41 H41        -6.9148    0.0407   51.9479 H       1  ZINC000821214121    0.0700
     42 H42        -8.2398   -0.8907   52.6861 H       1  ZINC000821214121    0.0900
     43 H43        -6.3542    3.0972   52.0925 H       1  ZINC000821214121    0.0700
     44 H44        -5.0186    2.7421   53.2142 H       1  ZINC000821214121    0.0700
     45 H45        -5.6417    1.4668   52.1402 H       1  ZINC000821214121    0.0800
@<TRIPOS>BOND
     1     1     2    1
     2     1    24    1
     3     1    25    1
     4     1    26    1
     5     2     3    1
     6     2    27    1
     7     2    28    1
     8     3     4    1
     9     3     8    1
    10     4     5    1
    11     4    29    1
    12     4    30    1
    13     5     6    1
    14     5    31    1
    15     5    32    1
    16     6     7    1
    17     6    33    1
    18     6    34    1
    19     7    35    1
    20     8     9    1
    21     8    36    1
    22     8    37    1
    23     9    10    2
    24     9    11   am
    25    11    12    1
    26    11    38    1
    27    12    23    1
    28    12    13    2
    29    13    14    1
    30    13    19    1
    31    14    18    1
    32    14    15    2
    33    15    16    1
    34    16    17    1
    35    16    39    1
    36    17    18    2
    37    19    20    1
    38    19    21    2
    39    20    40    1
    40    20    41    1
    41    20    42    1
    42    21    22    1
    43    21    23    1
    44    22    43    1
    45    22    44    1
    46    22    45    1
@<TRIPOS>SUBSTRUCTURE
     1 ZINC000821214121        1 TEMP              0 ****  ****    0 ROOT


##########                                Name:    ZINC001181473921
##########                DOCK_Rotatable_Bonds:                   9
##########                         Heavy_Atoms:                  24
##########                    Molecular_Weight:             357.431
##########                DOCK_Rotatable_Bonds:                   9
##########                       Formal_Charge:        -5.96046e-08
##########                     HBond_Acceptors:                   9
##########                        HBond_Donors:                   4
##########                         Heavy_Atoms:                  24
##########                          Grid_Score:          -29.422461
##########                     Grid_vdw_energy:          -28.139156
##########                      Grid_es_energy:           -1.283305
##########           Internal_energy_repulsive:           35.590904

@<TRIPOS>MOLECULE
ZINC001181473921
 47 48 1 0 0
SMALL
USER_CHARGES


@<TRIPOS>ATOM
      1 C1         -9.0302    3.3985   51.4314 C.3     1  ZINC001181473921   -0.1300
      2 C2         -7.9013    2.4208   51.2301 C.2     1  ZINC001181473921    0.1900
      3 C3         -6.8174    2.7926   50.5160 C.2     1  ZINC001181473921   -0.2400
      4 C4         -5.7584    1.8828   50.3249 C.2     1  ZINC001181473921    0.2500
      5 O5         -4.6642    2.2411   49.6114 O.3     1  ZINC001181473921   -0.4600
      6 C6         -5.8533    0.6190   50.8774 C.2     1  ZINC001181473921   -0.3700
      7 C7         -6.9969    0.2797   51.6097 C.2     1  ZINC001181473921    0.5300
      8 O8         -7.0959   -0.8324   52.1044 O.2     1  ZINC001181473921   -0.5500
      9 N9         -7.9852    1.1785   51.7745 N.am    1  ZINC001181473921   -0.5000
     10 C10        -9.1754    0.8079   52.5441 C.3     1  ZINC001181473921    0.1000
     11 C11        -8.9102    1.0341   54.0339 C.3     1  ZINC001181473921   -0.1600
     12 C12        -9.9474    0.3017   54.8456 C.2     1  ZINC001181473921    0.5200
     13 O13       -11.1229    0.4098   54.5669 O.2     1  ZINC001181473921   -0.5300
     14 N14        -9.5689   -0.4732   55.8813 N.am    1  ZINC001181473921   -0.7200
     15 C15       -10.5775   -1.1837   56.6715 C.3     1  ZINC001181473921    0.1400
     16 H16       -11.2115   -1.7932   56.0276 H       1  ZINC001181473921    0.1000
     17 C17       -11.4294   -0.1879   57.4971 C.3     1  ZINC001181473921   -0.1300
     18 C18       -11.9701   -1.0335   58.6687 C.3     1  ZINC001181473921   -0.1500
     19 C19       -11.0019   -2.2171   58.8400 C.3     1  ZINC001181473921   -0.0800
     20 H20       -11.5317   -3.1577   58.6892 H       1  ZINC001181473921    0.0900
     21 C21       -10.3778   -2.1857   60.2366 C.3     1  ZINC001181473921   -0.6200
     22 S22        -9.8706   -0.4902   60.6344 S.o2    1  ZINC001181473921    2.6100
     23 N23        -8.5755   -0.6737   61.6498 N.am    1  ZINC001181473921   -1.2500
     24 O24        -9.3288    0.1503   59.4874 O.2     1  ZINC001181473921   -0.9600
     25 O25       -10.8552    0.1501   61.4344 O.2     1  ZINC001181473921   -0.9600
     26 C26        -9.9064   -2.0535   57.7634 C.3     1  ZINC001181473921   -0.1200
     27 H27        -9.2244    3.5147   52.4977 H       1  ZINC001181473921    0.0900
     28 H28        -8.7558    4.3632   51.0047 H       1  ZINC001181473921    0.1000
     29 H29        -9.9270    3.0247   50.9374 H       1  ZINC001181473921    0.0900
     30 H30        -6.7623    3.7845   50.0922 H       1  ZINC001181473921    0.1500
     31 H31        -4.8036    3.0042   49.0340 H       1  ZINC001181473921    0.4100
     32 H32        -5.0557   -0.0972   50.7453 H       1  ZINC001181473921    0.1500
     33 H33       -10.0184    1.4221   52.2278 H       1  ZINC001181473921    0.1000
     34 H34        -9.4067   -0.2433   52.3717 H       1  ZINC001181473921    0.1100
     35 H35        -7.9188    0.6587   54.2876 H       1  ZINC001181473921    0.1100
     36 H36        -8.9625    2.1002   54.2545 H       1  ZINC001181473921    0.1000
     37 H37        -8.6288   -0.5605   56.1035 H       1  ZINC001181473921    0.4000
     38 H38       -10.8091    0.6274   57.8695 H       1  ZINC001181473921    0.0700
     39 H39       -12.2513    0.2008   56.8960 H       1  ZINC001181473921    0.0800
     40 H40       -11.9947   -0.4362   59.5801 H       1  ZINC001181473921    0.0900
     41 H41       -12.9698   -1.3996   58.4347 H       1  ZINC001181473921    0.0800
     42 H42       -11.1091   -2.5276   60.9692 H       1  ZINC001181473921    0.1400
     43 H43        -9.5067   -2.8405   60.2601 H       1  ZINC001181473921    0.1400
     44 H44        -8.1221    0.1074   62.0037 H       1  ZINC001181473921    0.4100
     45 H45        -8.2700   -1.5623   61.8907 H       1  ZINC001181473921    0.4200
     46 H46        -9.6189   -3.0248   57.3611 H       1  ZINC001181473921    0.0800
     47 H47        -9.0391   -1.5389   58.1769 H       1  ZINC001181473921    0.0800
@<TRIPOS>BOND
     1     1     2    1
     2     1    27    1
     3     1    28    1
     4     1    29    1
     5     2     9    1
     6     2     3    2
     7     3     4    1
     8     3    30    1
     9     4     5    1
    10     4     6    2
    11     5    31    1
    12     6     7    1
    13     6    32    1
    14     7     8    2
    15     7     9   am
    16     9    10    1
    17    10    11    1
    18    10    33    1
    19    10    34    1
    20    11    12    1
    21    11    35    1
    22    11    36    1
    23    12    13    2
    24    12    14   am
    25    14    15    1
    26    14    37    1
    27    15    16    1
    28    15    26    1
    29    15    17    1
    30    17    18    1
    31    17    38    1
    32    17    39    1
    33    18    19    1
    34    18    40    1
    35    18    41    1
    36    19    20    1
    37    19    21    1
    38    19    26    1
    39    21    22    1
    40    21    42    1
    41    21    43    1
    42    22    23   am
    43    22    24    2
    44    22    25    2
    45    23    44    1
    46    23    45    1
    47    26    46    1
    48    26    47    1
@<TRIPOS>SUBSTRUCTURE
     1 ZINC001181473921        1 TEMP              0 ****  ****    0 ROOT


##########                                Name:    ZINC000523153175
##########                DOCK_Rotatable_Bonds:                   9
##########                         Heavy_Atoms:                  30
##########                    Molecular_Weight:             413.603
##########                DOCK_Rotatable_Bonds:                   9
##########                       Formal_Charge:           0.0499987
##########                     HBond_Acceptors:                   5
##########                        HBond_Donors:                   1
##########                         Heavy_Atoms:                  30
##########                          Grid_Score:          -29.390635
##########                     Grid_vdw_energy:          -28.703041
##########                      Grid_es_energy:           -0.687593
##########           Internal_energy_repulsive:           33.937557

@<TRIPOS>MOLECULE
ZINC000523153175
 69 71 1 0 0
SMALL
USER_CHARGES


@<TRIPOS>ATOM
      1 C1        -16.5633   -2.3911   58.9919 C.3     1  ZINC000523153175   -0.1500
      2 C2        -16.3929   -2.9180   57.5655 C.3     1  ZINC000523153175   -0.0600
      3 C3        -17.2559   -2.0915   56.6101 C.3     1  ZINC000523153175   -0.1400
      4 C4        -14.9460   -2.8074   57.1588 C.ar    1  ZINC000523153175   -0.0800
      5 C5        -14.4861   -1.6562   56.5472 C.ar    1  ZINC000523153175   -0.1100
      6 C6        -13.1589   -1.5547   56.1741 C.ar    1  ZINC000523153175   -0.1100
      7 C7        -12.2916   -2.6043   56.4129 C.ar    1  ZINC000523153175   -0.0800
      8 C8        -10.8448   -2.4939   56.0057 C.3     1  ZINC000523153175   -0.0300
      9 H9        -10.3168   -3.4039   56.2902 H       1  ZINC000523153175    0.0800
     10 C10       -10.7547   -2.3047   54.4901 C.3     1  ZINC000523153175   -0.1500
     11 C11       -10.2076   -1.2935   56.7083 C.3     1  ZINC000523153175   -0.1300
     12 C12        -9.6697   -1.7234   58.0487 C.2     1  ZINC000523153175    0.5200
     13 O13        -9.8965   -2.8404   58.4632 O.2     1  ZINC000523153175   -0.5300
     14 N14        -8.9365   -0.8667   58.7870 N.am    1  ZINC000523153175   -0.6200
     15 C15        -8.6563    0.4950   58.3066 C.3     1  ZINC000523153175    0.1100
     16 C16        -9.0327    1.4879   59.4114 C.3     1  ZINC000523153175    0.0400
     17 N17        -8.3466    1.1146   60.6555 N.3     1  ZINC000523153175   -0.5100
     18 C18        -8.5437    2.1365   61.6924 C.3     1  ZINC000523153175    0.0600
     19 H19        -8.3842    1.6926   62.6750 H       1  ZINC000523153175    0.1100
     20 C20        -7.5466    3.2773   61.4801 C.3     1  ZINC000523153175   -0.1800
     21 C21        -9.9487    2.6747   61.6064 C.2     1  ZINC000523153175    0.5200
     22 O22       -10.1722    3.6895   60.9812 O.2     1  ZINC000523153175   -0.5200
     23 N23       -10.9570    2.0282   62.2246 N.am    1  ZINC000523153175   -0.7200
     24 C24       -12.3231    2.5505   62.1396 C.3     1  ZINC000523153175    0.1400
     25 C25       -13.0564    1.9192   60.9382 C.3     1  ZINC000523153175   -0.1300
     26 C26       -13.8379    0.7310   61.5517 C.3     1  ZINC000523153175   -0.1300
     27 C27       -14.3060    1.2974   62.9151 C.3     1  ZINC000523153175   -0.1300
     28 C28       -13.1177    2.1551   63.3967 C.3     1  ZINC000523153175   -0.1300
     29 C29        -8.7821   -0.2062   61.1286 C.3     1  ZINC000523153175    0.0400
     30 C30        -8.4006   -1.2665   60.0970 C.3     1  ZINC000523153175    0.1200
     31 C31       -12.7513   -3.7549   57.0257 C.ar    1  ZINC000523153175   -0.1100
     32 C32       -14.0776   -3.8549   57.4024 C.ar    1  ZINC000523153175   -0.1200
     33 H33       -17.6098   -2.4711   59.2861 H       1  ZINC000523153175    0.0600
     34 H34       -15.9485   -2.9799   59.6725 H       1  ZINC000523153175    0.0600
     35 H35       -16.2531   -1.3470   59.0330 H       1  ZINC000523153175    0.0600
     36 H36       -16.7031   -3.9621   57.5244 H       1  ZINC000523153175    0.0800
     37 H37       -16.9457   -1.0474   56.6512 H       1  ZINC000523153175    0.0600
     38 H38       -17.1344   -2.4668   55.5939 H       1  ZINC000523153175    0.0600
     39 H39       -18.3024   -2.1715   56.9043 H       1  ZINC000523153175    0.0600
     40 H40       -15.1637   -0.8361   56.3606 H       1  ZINC000523153175    0.1200
     41 H41       -12.7997   -0.6555   55.6956 H       1  ZINC000523153175    0.1200
     42 H42        -9.7083   -2.2247   54.1955 H       1  ZINC000523153175    0.0800
     43 H43       -11.2088   -3.1599   53.9895 H       1  ZINC000523153175    0.0600
     44 H44       -11.2828   -1.3946   54.2055 H       1  ZINC000523153175    0.0500
     45 H45        -9.3926   -0.9053   56.0973 H       1  ZINC000523153175    0.0900
     46 H46       -10.9575   -0.5154   56.8504 H       1  ZINC000523153175    0.0900
     47 H47        -7.5955    0.5902   58.0745 H       1  ZINC000523153175    0.0800
     48 H48        -9.2488    0.6977   57.4145 H       1  ZINC000523153175    0.0900
     49 H49        -8.7297    2.4925   59.1162 H       1  ZINC000523153175    0.0900
     50 H50       -10.1109    1.4645   59.5696 H       1  ZINC000523153175    0.0400
     51 H51        -7.7062    3.7212   60.4974 H       1  ZINC000523153175    0.0700
     52 H52        -7.6929    4.0355   62.2493 H       1  ZINC000523153175    0.0700
     53 H53        -6.5303    2.8879   61.5422 H       1  ZINC000523153175    0.0700
     54 H54       -10.7780    1.2172   62.7257 H       1  ZINC000523153175    0.4000
     55 H55       -12.3021    3.6354   62.0372 H       1  ZINC000523153175    0.0900
     56 H56       -13.7435    2.6373   60.4904 H       1  ZINC000523153175    0.0700
     57 H57       -12.3397    1.5630   60.1981 H       1  ZINC000523153175    0.0700
     58 H58       -14.6927    0.4680   60.9286 H       1  ZINC000523153175    0.0700
     59 H59       -13.1836   -0.1290   61.6947 H       1  ZINC000523153175    0.0700
     60 H60       -15.1949    1.9149   62.7868 H       1  ZINC000523153175    0.0700
     61 H61       -14.5013    0.4874   63.6180 H       1  ZINC000523153175    0.0700
     62 H62       -12.4868    1.5746   64.0699 H       1  ZINC000523153175    0.0700
     63 H63       -13.4829    3.0481   63.9037 H       1  ZINC000523153175    0.0800
     64 H64        -8.2974   -0.4302   62.0788 H       1  ZINC000523153175    0.1000
     65 H65        -9.8638   -0.2059   61.2628 H       1  ZINC000523153175    0.0400
     66 H66        -8.8214   -2.2289   60.3882 H       1  ZINC000523153175    0.1000
     67 H67        -7.3150   -1.3424   60.0342 H       1  ZINC000523153175    0.0800
     68 H68       -12.0736   -4.5748   57.2127 H       1  ZINC000523153175    0.1200
     69 H69       -14.4367   -4.7538   57.8812 H       1  ZINC000523153175    0.1200
@<TRIPOS>BOND
     1     1     2    1
     2     1    33    1
     3     1    34    1
     4     1    35    1
     5     2     3    1
     6     2     4    1
     7     2    36    1
     8     3    37    1
     9     3    38    1
    10     3    39    1
    11     4    32   ar
    12     4     5   ar
    13     5     6   ar
    14     5    40    1
    15     6     7   ar
    16     6    41    1
    17     7     8    1
    18     7    31   ar
    19     8     9    1
    20     8    10    1
    21     8    11    1
    22    10    42    1
    23    10    43    1
    24    10    44    1
    25    11    12    1
    26    11    45    1
    27    11    46    1
    28    12    13    2
    29    12    14   am
    30    14    30    1
    31    14    15    1
    32    15    16    1
    33    15    47    1
    34    15    48    1
    35    16    17    1
    36    16    49    1
    37    16    50    1
    38    17    18    1
    39    17    29    1
    40    18    19    1
    41    18    20    1
    42    18    21    1
    43    20    51    1
    44    20    52    1
    45    20    53    1
    46    21    22    2
    47    21    23   am
    48    23    24    1
    49    23    54    1
    50    24    28    1
    51    24    25    1
    52    24    55    1
    53    25    26    1
    54    25    56    1
    55    25    57    1
    56    26    27    1
    57    26    58    1
    58    26    59    1
    59    27    28    1
    60    27    60    1
    61    27    61    1
    62    28    62    1
    63    28    63    1
    64    29    30    1
    65    29    64    1
    66    29    65    1
    67    30    66    1
    68    30    67    1
    69    31    32   ar
    70    31    68    1
    71    32    69    1
@<TRIPOS>SUBSTRUCTURE
     1 ZINC000523153175        1 TEMP              0 ****  ****    0 ROOT


##########                                Name:    ZINC000450219577
##########                DOCK_Rotatable_Bonds:                   8
##########                         Heavy_Atoms:                  26
##########                    Molecular_Weight:             353.421
##########                DOCK_Rotatable_Bonds:                   8
##########                       Formal_Charge:          -0.0199997
##########                     HBond_Acceptors:                   6
##########                        HBond_Donors:                   1
##########                         Heavy_Atoms:                  26
##########                          Grid_Score:          -29.390623
##########                     Grid_vdw_energy:          -28.858498
##########                      Grid_es_energy:           -0.532126
##########           Internal_energy_repulsive:           36.777809

@<TRIPOS>MOLECULE
ZINC000450219577
 49 51 1 0 0
SMALL
USER_CHARGES


@<TRIPOS>ATOM
      1 C1        -12.8325    2.5186   57.9409 C.3     1  ZINC000450219577   -0.1800
      2 C2        -12.8517    1.3752   56.9243 C.3     1  ZINC000450219577    0.1200
      3 C3        -13.9100    0.3482   57.3318 C.3     1  ZINC000450219577   -0.1800
      4 C4        -13.1869    1.9305   55.5386 C.3     1  ZINC000450219577   -0.1400
      5 O5        -11.5476    0.7379   56.8879 O.3     1  ZINC000450219577   -0.3400
      6 C6        -11.3956   -0.2910   56.0395 C.2     1  ZINC000450219577    0.4700
      7 O7        -12.3233   -0.6509   55.3540 O.2     1  ZINC000450219577   -0.5000
      8 C8        -10.0680   -0.9973   55.9419 C.3     1  ZINC000450219577    0.2000
      9 H9        -10.2219   -2.0107   55.5713 H       1  ZINC000450219577    0.1400
     10 N10        -9.1934   -0.2680   55.0201 N.am    1  ZINC000450219577   -0.7100
     11 C11        -9.3178   -0.4461   53.6900 C.2     1  ZINC000450219577    0.5800
     12 O12       -10.1567   -1.2108   53.2551 O.2     1  ZINC000450219577   -0.5200
     13 C13        -8.4342    0.2885   52.7600 C.ar    1  ZINC000450219577   -0.2500
     14 C14        -7.7665    1.4490   53.1673 C.ar    1  ZINC000450219577    0.1900
     15 N15        -6.9859    2.0739   52.3034 N.ar    1  ZINC000450219577   -0.5100
     16 C16        -6.8323    1.6190   51.0752 C.ar    1  ZINC000450219577    0.3800
     17 C17        -5.9311    2.3675   50.1274 C.3     1  ZINC000450219577   -0.1100
     18 C18        -4.6082    2.8995   50.6822 C.3     1  ZINC000450219577   -0.1500
     19 C19        -4.6121    1.7006   49.7317 C.3     1  ZINC000450219577   -0.1500
     20 N20        -7.4419    0.5295   50.6502 N.ar    1  ZINC000450219577   -0.5200
     21 C21        -8.2369   -0.1603   51.4492 C.ar    1  ZINC000450219577    0.2200
     22 C22        -9.4269   -1.0526   57.3046 C.ar    1  ZINC000450219577   -0.1100
     23 C23        -8.5448   -0.0622   57.6943 C.ar    1  ZINC000450219577   -0.1000
     24 C24        -7.9570   -0.1129   58.9443 C.ar    1  ZINC000450219577   -0.1200
     25 C25        -8.2514   -1.1539   59.8049 C.ar    1  ZINC000450219577   -0.1100
     26 C26        -9.1342   -2.1438   59.4156 C.ar    1  ZINC000450219577   -0.1200
     27 C27        -9.7254   -2.0908   58.1672 C.ar    1  ZINC000450219577   -0.0800
     28 H28       -12.5937    2.1230   58.9281 H       1  ZINC000450219577    0.0800
     29 H29       -12.0786    3.2502   57.6505 H       1  ZINC000450219577    0.0600
     30 H30       -13.8115    2.9970   57.9682 H       1  ZINC000450219577    0.0700
     31 H31       -14.8891    0.8266   57.3592 H       1  ZINC000450219577    0.0700
     32 H32       -13.9239   -0.4663   56.6076 H       1  ZINC000450219577    0.0600
     33 H33       -13.6713   -0.0474   58.3191 H       1  ZINC000450219577    0.0800
     34 H34       -12.4329    2.6622   55.2482 H       1  ZINC000450219577    0.0700
     35 H35       -13.2007    1.1160   54.8144 H       1  ZINC000450219577    0.0700
     36 H36       -14.1660    2.4089   55.5660 H       1  ZINC000450219577    0.0800
     37 H37        -8.5249    0.3432   55.3671 H       1  ZINC000450219577    0.4100
     38 H38        -7.8876    1.8280   54.1714 H       1  ZINC000450219577    0.1700
     39 H39        -6.4380    2.9677   49.3719 H       1  ZINC000450219577    0.1300
     40 H40        -4.2447    3.8501   50.2918 H       1  ZINC000450219577    0.1000
     41 H41        -4.3898    2.7081   51.7328 H       1  ZINC000450219577    0.1100
     42 H42        -4.3962    0.7205   50.1570 H       1  ZINC000450219577    0.1000
     43 H43        -4.2512    1.8624   48.7160 H       1  ZINC000450219577    0.1100
     44 H44        -8.7328   -1.0516   51.0939 H       1  ZINC000450219577    0.1800
     45 H45        -8.3148    0.7511   57.0219 H       1  ZINC000450219577    0.1200
     46 H46        -7.2672    0.6605   59.2484 H       1  ZINC000450219577    0.1200
     47 H47        -7.7915   -1.1938   60.7812 H       1  ZINC000450219577    0.1300
     48 H48        -9.3640   -2.9573   60.0879 H       1  ZINC000450219577    0.1300
     49 H49       -10.4151   -2.8642   57.8630 H       1  ZINC000450219577    0.1300
@<TRIPOS>BOND
     1     1     2    1
     2     1    28    1
     3     1    29    1
     4     1    30    1
     5     2     3    1
     6     2     4    1
     7     2     5    1
     8     3    31    1
     9     3    32    1
    10     3    33    1
    11     4    34    1
    12     4    35    1
    13     4    36    1
    14     5     6    1
    15     6     7    2
    16     6     8    1
    17     8     9    1
    18     8    10    1
    19     8    22    1
    20    10    11   am
    21    10    37    1
    22    11    12    2
    23    11    13    1
    24    13    21   ar
    25    13    14   ar
    26    14    15   ar
    27    14    38    1
    28    15    16   ar
    29    16    17    1
    30    16    20   ar
    31    17    19    1
    32    17    18    1
    33    17    39    1
    34    18    19    1
    35    18    40    1
    36    18    41    1
    37    19    42    1
    38    19    43    1
    39    20    21   ar
    40    21    44    1
    41    22    27   ar
    42    22    23   ar
    43    23    24   ar
    44    23    45    1
    45    24    25   ar
    46    24    46    1
    47    25    26   ar
    48    25    47    1
    49    26    27   ar
    50    26    48    1
    51    27    49    1
@<TRIPOS>SUBSTRUCTURE
     1 ZINC000450219577        1 TEMP              0 ****  ****    0 ROOT


##########                                Name:    ZINC001176298561
##########                DOCK_Rotatable_Bonds:                   6
##########                         Heavy_Atoms:                  23
##########                    Molecular_Weight:             337.781
##########                DOCK_Rotatable_Bonds:                   6
##########                       Formal_Charge:          -0.0100003
##########                     HBond_Acceptors:                   7
##########                        HBond_Donors:                   2
##########                         Heavy_Atoms:                  23
##########                          Grid_Score:          -29.387911
##########                     Grid_vdw_energy:          -25.846392
##########                      Grid_es_energy:           -3.541519
##########           Internal_energy_repulsive:           12.536019

@<TRIPOS>MOLECULE
ZINC001176298561
 40 41 1 0 0
SMALL
USER_CHARGES


@<TRIPOS>ATOM
      1 C1         -6.1638    1.7528   67.7271 C.3     1  ZINC001176298561   -0.1700
      2 C2         -7.6399    2.1468   67.6434 C.3     1  ZINC001176298561    0.1100
      3 N3         -8.1070    1.9992   66.2628 N.am    1  ZINC001176298561   -0.6100
      4 C4         -8.0067    3.1252   65.3311 C.3     1  ZINC001176298561    0.0900
      5 C5         -9.2852    3.9626   65.4035 C.3     1  ZINC001176298561   -0.1800
      6 C6         -8.6291    0.8273   65.8498 C.2     1  ZINC001176298561    0.5600
      7 O7         -8.7124   -0.1071   66.6227 O.2     1  ZINC001176298561   -0.5300
      8 C8         -9.1008    0.6783   64.4562 C.ar    1  ZINC001176298561   -0.0600
      9 C9        -10.3661    1.1412   64.0924 C.ar    1  ZINC001176298561   -0.1900
     10 C10       -10.8049    1.0006   62.7887 C.ar    1  ZINC001176298561    0.1400
     11 F11       -12.0299    1.4496   62.4380 F       1  ZINC001176298561   -0.1300
     12 C12        -9.9922    0.4016   61.8419 C.ar    1  ZINC001176298561   -0.1800
     13 C13        -8.7305   -0.0620   62.1962 C.ar    1  ZINC001176298561    0.2400
     14 N14        -7.9136   -0.6654   61.2373 N.pl3   1  ZINC001176298561   -0.6700
     15 C15        -8.3798   -0.8363   59.9282 C.2     1  ZINC001176298561    0.0400
     16 C16        -9.1335   -1.9298   59.5991 C.2     1  ZINC001176298561   -0.0300
     17 C17        -9.5884   -2.0767   58.2800 C.2     1  ZINC001176298561   -0.1300
     18 Cl18      -10.5461   -3.4565   57.8412 Cl      1  ZINC001176298561   -0.0400
     19 C19        -9.2813   -1.1430   57.3499 C.2     1  ZINC001176298561    0.1400
     20 N20        -8.5317   -0.0550   57.6758 N.am    1  ZINC001176298561   -0.6000
     21 C21        -8.0825    0.1207   58.9332 C.2     1  ZINC001176298561    0.5100
     22 O22        -7.4114    1.1020   59.2105 O.2     1  ZINC001176298561   -0.5200
     23 C23        -8.2801    0.0800   63.5003 C.ar    1  ZINC001176298561   -0.1300
     24 H24        -5.8161    1.8625   68.7544 H       1  ZINC001176298561    0.0700
     25 H25        -6.0461    0.7159   67.4125 H       1  ZINC001176298561    0.0600
     26 H26        -5.5776    2.3994   67.0741 H       1  ZINC001176298561    0.0600
     27 H27        -8.2261    1.5001   68.2964 H       1  ZINC001176298561    0.0800
     28 H28        -7.7576    3.1837   67.9581 H       1  ZINC001176298561    0.0900
     29 H29        -7.1510    3.7445   65.6003 H       1  ZINC001176298561    0.0900
     30 H30        -7.8768    2.7473   64.3170 H       1  ZINC001176298561    0.0800
     31 H31        -9.6103    4.0403   66.4410 H       1  ZINC001176298561    0.0700
     32 H32        -9.0895    4.9595   65.0083 H       1  ZINC001176298561    0.0700
     33 H33       -10.0665    3.4846   64.8127 H       1  ZINC001176298561    0.0600
     34 H34       -11.0026    1.6086   64.8291 H       1  ZINC001176298561    0.1500
     35 H35       -10.3396    0.2938   60.8249 H       1  ZINC001176298561    0.1300
     36 H36        -7.0235   -0.9661   61.4783 H       1  ZINC001176298561    0.4200
     37 H37        -9.3753   -2.6715   60.3460 H       1  ZINC001176298561    0.1500
     38 H38        -9.6351   -1.2629   56.3366 H       1  ZINC001176298561    0.1800
     39 H39        -8.3215    0.6036   56.9952 H       1  ZINC001176298561    0.4300
     40 H40        -7.3001   -0.2798   63.7769 H       1  ZINC001176298561    0.1400
@<TRIPOS>BOND
     1     1     2    1
     2     1    24    1
     3     1    25    1
     4     1    26    1
     5     2     3    1
     6     2    27    1
     7     2    28    1
     8     3     4    1
     9     3     6   am
    10     4     5    1
    11     4    29    1
    12     4    30    1
    13     5    31    1
    14     5    32    1
    15     5    33    1
    16     6     7    2
    17     6     8    1
    18     8    23   ar
    19     8     9   ar
    20     9    10   ar
    21     9    34    1
    22    10    11    1
    23    10    12   ar
    24    12    13   ar
    25    12    35    1
    26    13    14    1
    27    13    23   ar
    28    14    15    1
    29    14    36    1
    30    15    21    1
    31    15    16    2
    32    16    17    1
    33    16    37    1
    34    17    18    1
    35    17    19    2
    36    19    20    1
    37    19    38    1
    38    20    21   am
    39    20    39    1
    40    21    22    2
    41    23    40    1
@<TRIPOS>SUBSTRUCTURE
     1 ZINC001176298561        1 TEMP              0 ****  ****    0 ROOT


##########                                Name:    ZINC000599228306
##########                DOCK_Rotatable_Bonds:                   8
##########                         Heavy_Atoms:                  25
##########                    Molecular_Weight:             379.382
##########                DOCK_Rotatable_Bonds:                   8
##########                       Formal_Charge:        -4.09782e-08
##########                     HBond_Acceptors:                  10
##########                        HBond_Donors:                   1
##########                         Heavy_Atoms:                  25
##########                          Grid_Score:          -29.378109
##########                     Grid_vdw_energy:          -28.463060
##########                      Grid_es_energy:           -0.915048
##########           Internal_energy_repulsive:           27.921442

@<TRIPOS>MOLECULE
ZINC000599228306
 44 44 1 0 0
SMALL
USER_CHARGES


@<TRIPOS>ATOM
      1 C1        -10.6581   -0.3801   52.0310 C.3     1  ZINC000599228306    0.0400
      2 O2        -10.6104   -0.5521   53.4720 O.3     1  ZINC000599228306   -0.3500
      3 C3         -9.3913   -0.6620   54.0349 C.2     1  ZINC000599228306    0.5100
      4 O4         -8.3976   -0.6658   53.3360 O.2     1  ZINC000599228306   -0.4800
      5 C5         -9.2630   -0.7780   55.5005 C.ar    1  ZINC000599228306   -0.1500
      6 C6         -8.4496    0.1115   56.2063 C.ar    1  ZINC000599228306   -0.0100
      7 C7         -8.3342   -0.0031   57.5775 C.ar    1  ZINC000599228306    0.0700
      8 F8         -7.5478    0.8566   58.2616 F       1  ZINC000599228306   -0.1200
      9 C9         -9.0236   -0.9973   58.2542 C.ar    1  ZINC000599228306    0.0100
     10 C10        -9.8306   -1.8814   57.5627 C.ar    1  ZINC000599228306   -0.7100
     11 S11       -10.7025   -3.1408   58.4336 S.o2    1  ZINC000599228306    2.7000
     12 O12       -11.8785   -3.4078   57.6818 O.2     1  ZINC000599228306   -0.9200
     13 O13        -9.7454   -4.1391   58.7600 O.2     1  ZINC000599228306   -0.9300
     14 N14       -11.2040   -2.4864   59.8698 N.am    1  ZINC000599228306   -1.1000
     15 C15       -12.0944   -1.3231   59.8734 C.3     1  ZINC000599228306    0.1600
     16 H16       -12.0402   -0.8211   58.9073 H       1  ZINC000599228306    0.1300
     17 C17       -13.5314   -1.7815   60.1299 C.3     1  ZINC000599228306   -0.1700
     18 C18       -11.6699   -0.3689   60.9598 C.2     1  ZINC000599228306    0.4700
     19 O19       -12.3758    0.5673   61.2514 O.2     1  ZINC000599228306   -0.4900
     20 O20       -10.5075   -0.5590   61.6035 O.3     1  ZINC000599228306   -0.3400
     21 C21        -9.7920    0.6278   62.0368 C.3     1  ZINC000599228306    0.1200
     22 C22        -9.7696    1.6528   60.9011 C.3     1  ZINC000599228306   -0.1900
     23 C23       -10.4949    1.2310   63.2545 C.3     1  ZINC000599228306   -0.1400
     24 C24        -8.3573    0.2502   62.4112 C.3     1  ZINC000599228306   -0.1800
     25 C25        -9.9600   -1.7757   56.1903 C.ar    1  ZINC000599228306    0.2500
     26 F26       -10.7495   -2.6402   55.5159 F       1  ZINC000599228306   -0.0900
     27 H27       -11.6964   -0.3050   51.7083 H       1  ZINC000599228306    0.1100
     28 H28       -10.1253    0.5301   51.7559 H       1  ZINC000599228306    0.0700
     29 H29       -10.1881   -1.2364   51.5472 H       1  ZINC000599228306    0.0700
     30 H30        -7.9118    0.8867   55.6807 H       1  ZINC000599228306    0.1700
     31 H31        -8.9295   -1.0819   59.3267 H       1  ZINC000599228306    0.1800
     32 H32       -10.9083   -2.8734   60.7086 H       1  ZINC000599228306    0.4300
     33 H33       -14.1939   -0.9158   60.1326 H       1  ZINC000599228306    0.0900
     34 H34       -13.8384   -2.4716   59.3441 H       1  ZINC000599228306    0.0700
     35 H35       -13.5856   -2.2835   61.0960 H       1  ZINC000599228306    0.0800
     36 H36       -10.7917    1.9219   60.6343 H       1  ZINC000599228306    0.0600
     37 H37        -9.2324    2.5438   61.2263 H       1  ZINC000599228306    0.0700
     38 H38        -9.2688    1.2231   60.0335 H       1  ZINC000599228306    0.0800
     39 H39       -10.5108    0.5008   64.0635 H       1  ZINC000599228306    0.0700
     40 H40        -9.9578    2.1221   63.5797 H       1  ZINC000599228306    0.0800
     41 H41       -11.5170    1.5002   62.9877 H       1  ZINC000599228306    0.0700
     42 H42        -7.8566   -0.1795   61.5437 H       1  ZINC000599228306    0.0800
     43 H43        -7.8202    1.1412   62.7365 H       1  ZINC000599228306    0.0700
     44 H44        -8.3733   -0.4801   63.2203 H       1  ZINC000599228306    0.0600
@<TRIPOS>BOND
     1     1     2    1
     2     1    27    1
     3     1    28    1
     4     1    29    1
     5     2     3    1
     6     3     4    2
     7     3     5    1
     8     5    25   ar
     9     5     6   ar
    10     6     7   ar
    11     6    30    1
    12     7     8    1
    13     7     9   ar
    14     9    10   ar
    15     9    31    1
    16    10    11    1
    17    10    25   ar
    18    11    12    2
    19    11    13    2
    20    11    14   am
    21    14    15    1
    22    14    32    1
    23    15    16    1
    24    15    17    1
    25    15    18    1
    26    17    33    1
    27    17    34    1
    28    17    35    1
    29    18    19    2
    30    18    20    1
    31    20    21    1
    32    21    22    1
    33    21    23    1
    34    21    24    1
    35    22    36    1
    36    22    37    1
    37    22    38    1
    38    23    39    1
    39    23    40    1
    40    23    41    1
    41    24    42    1
    42    24    43    1
    43    24    44    1
    44    25    26    1
@<TRIPOS>SUBSTRUCTURE
     1 ZINC000599228306        1 TEMP              0 ****  ****    0 ROOT


##########                                Name:    ZINC000281092425
##########                DOCK_Rotatable_Bonds:                   8
##########                         Heavy_Atoms:                  23
##########                    Molecular_Weight:             332.304
##########                DOCK_Rotatable_Bonds:                   8
##########                       Formal_Charge:         2.98023e-08
##########                     HBond_Acceptors:                   9
##########                        HBond_Donors:                   2
##########                         Heavy_Atoms:                  23
##########                          Grid_Score:          -29.375139
##########                     Grid_vdw_energy:          -28.722395
##########                      Grid_es_energy:           -0.652744
##########           Internal_energy_repulsive:           25.284111

@<TRIPOS>MOLECULE
ZINC000281092425
 41 42 1 0 0
SMALL
USER_CHARGES


@<TRIPOS>ATOM
      1 O1         -7.9372    2.0564   61.2427 O.2     1  ZINC000281092425   -0.1800
      2 N2         -8.5071    1.1490   60.6635 N.pl3   1  ZINC000281092425    0.0400
      3 O3         -9.2782    0.4280   61.2709 O.2     1  ZINC000281092425   -0.1500
      4 C4         -8.2671    0.9264   59.2200 C.ar    1  ZINC000281092425   -0.1200
      5 C5         -7.3921    1.7449   58.5318 C.ar    1  ZINC000281092425    0.0200
      6 C6         -7.1655    1.5404   57.1844 C.ar    1  ZINC000281092425   -0.2200
      7 C7         -7.8171    0.5100   56.5182 C.ar    1  ZINC000281092425    0.3000
      8 N8         -7.5879    0.3027   55.1561 N.pl3   1  ZINC000281092425   -0.7200
      9 C9         -8.7192    0.1413   54.2393 C.3     1  ZINC000281092425    0.1200
     10 C10        -8.2045   -0.2962   52.8664 C.3     1  ZINC000281092425   -0.0900
     11 H11        -7.8475   -1.3245   52.9230 H       1  ZINC000281092425    0.0900
     12 C12        -9.3390   -0.2056   51.8439 C.3     1  ZINC000281092425    0.0800
     13 O13       -10.5815   -0.5044   52.4833 O.3     1  ZINC000281092425   -0.5700
     14 C14        -7.0563    0.6192   52.4368 C.3     1  ZINC000281092425   -0.1100
     15 H15        -6.1731    0.4454   53.0515 H       1  ZINC000281092425    0.0900
     16 C16        -6.7286    0.4255   50.9312 C.3     1  ZINC000281092425   -0.1600
     17 C17        -6.1581    1.8207   50.5724 C.3     1  ZINC000281092425    0.0500
     18 O18        -6.9368    2.7529   51.3393 O.3     1  ZINC000281092425   -0.3900
     19 C19        -7.4839    2.1014   52.4960 C.3     1  ZINC000281092425    0.0700
     20 C20        -8.6964   -0.3135   57.2083 C.ar    1  ZINC000281092425   -0.2800
     21 C21        -8.9172   -0.1079   58.5608 C.ar    1  ZINC000281092425    0.2300
     22 O22        -9.7768   -0.9126   59.2394 O.3     1  ZINC000281092425   -0.2900
     23 C23        -9.3174   -2.2266   59.5625 C.3     1  ZINC000281092425    0.4100
     24 F24        -9.8666   -3.1468   58.6631 F       1  ZINC000281092425   -0.1900
     25 F25        -7.9216   -2.2668   59.4768 F       1  ZINC000281092425   -0.1900
     26 H26        -6.8846    2.5463   59.0482 H       1  ZINC000281092425    0.1600
     27 H27        -6.4816    2.1819   56.6486 H       1  ZINC000281092425    0.1500
     28 H28        -6.6799    0.2657   54.8172 H       1  ZINC000281092425    0.4100
     29 H29        -9.3988   -0.6157   54.6306 H       1  ZINC000281092425    0.0800
     30 H30        -9.2477    1.0897   54.1439 H       1  ZINC000281092425    0.0800
     31 H31        -9.3761    0.8024   51.4307 H       1  ZINC000281092425    0.0500
     32 H32        -9.1623   -0.9211   51.0408 H       1  ZINC000281092425    0.0500
     33 H33       -10.8007    0.0899   53.2140 H       1  ZINC000281092425    0.3800
     34 H34        -5.9796   -0.3536   50.7892 H       1  ZINC000281092425    0.0800
     35 H35        -7.6301    0.2104   50.3574 H       1  ZINC000281092425    0.0800
     36 H36        -5.1071    1.8836   50.8547 H       1  ZINC000281092425    0.0600
     37 H37        -6.2767    2.0153   49.5066 H       1  ZINC000281092425    0.0900
     38 H38        -8.5715    2.1708   52.4798 H       1  ZINC000281092425    0.0800
     39 H39        -7.0959    2.5684   53.4014 H       1  ZINC000281092425    0.0700
     40 H40        -9.2043   -1.1152   56.6929 H       1  ZINC000281092425    0.1500
     41 H41        -9.6267   -2.4805   60.5764 H       1  ZINC000281092425    0.1900
@<TRIPOS>BOND
     1     1     2    2
     2     2     3    2
     3     2     4    1
     4     4    21   ar
     5     4     5   ar
     6     5     6   ar
     7     5    26    1
     8     6     7   ar
     9     6    27    1
    10     7     8    1
    11     7    20   ar
    12     8     9    1
    13     8    28    1
    14     9    10    1
    15     9    29    1
    16     9    30    1
    17    10    11    1
    18    10    12    1
    19    10    14    1
    20    12    13    1
    21    12    31    1
    22    12    32    1
    23    13    33    1
    24    14    15    1
    25    14    19    1
    26    14    16    1
    27    16    17    1
    28    16    34    1
    29    16    35    1
    30    17    18    1
    31    17    36    1
    32    17    37    1
    33    18    19    1
    34    19    38    1
    35    19    39    1
    36    20    21   ar
    37    20    40    1
    38    21    22    1
    39    22    23    1
    40    23    24    1
    41    23    25    1
    42    23    41    1
@<TRIPOS>SUBSTRUCTURE
     1 ZINC000281092425        1 TEMP              0 ****  ****    0 ROOT


##########                                Name:    ZINC001345966764
##########                DOCK_Rotatable_Bonds:                  10
##########                         Heavy_Atoms:                  22
##########                    Molecular_Weight:             333.258
##########                DOCK_Rotatable_Bonds:                  10
##########                       Formal_Charge:           0.0099997
##########                     HBond_Acceptors:                  11
##########                        HBond_Donors:                   4
##########                         Heavy_Atoms:                  22
##########                          Grid_Score:          -29.362694
##########                     Grid_vdw_energy:          -29.222116
##########                      Grid_es_energy:           -0.140578
##########           Internal_energy_repulsive:            6.489271

@<TRIPOS>MOLECULE
ZINC001345966764
 38 38 1 0 0
SMALL
USER_CHARGES


@<TRIPOS>ATOM
      1 N1          0.9088    1.7855   51.8574 N.3     1  ZINC001345966764   -0.8400
      2 C2          1.7079    1.3496   50.7043 C.3     1  ZINC001345966764    0.0200
      3 C3          1.0837    1.8919   49.4170 C.3     1  ZINC001345966764    0.2800
      4 F4          0.7278    3.2325   49.6000 F       1  ZINC001345966764   -0.1900
      5 F5          2.0093    1.7936   48.3725 F       1  ZINC001345966764   -0.1800
      6 C6         -0.1635    1.0757   49.0718 C.3     1  ZINC001345966764    0.0800
      7 N7         -1.3281    1.6547   49.7461 N.am    1  ZINC001345966764   -0.7000
      8 C8         -2.5543    1.5281   49.2011 C.2     1  ZINC001345966764    0.5100
      9 O9         -2.6934    0.9359   48.1511 O.2     1  ZINC001345966764   -0.5100
     10 C10        -3.7427    2.1171   49.8900 C.2     1  ZINC001345966764    0.5100
     11 O11        -3.5951    3.0143   50.6936 O.2     1  ZINC001345966764   -0.5100
     12 N12        -4.9780    1.6518   49.6186 N.am    1  ZINC001345966764   -0.7000
     13 C13        -6.1431    2.2304   50.2925 C.3     1  ZINC001345966764    0.1200
     14 C14        -7.1704    1.1310   50.5693 C.3     1  ZINC001345966764    0.0600
     15 H15        -7.4893    0.6668   49.6360 H       1  ZINC001345966764    0.0900
     16 C16        -6.5786    0.0696   51.5230 C.3     1  ZINC001345966764   -0.1400
     17 C17        -7.7686   -0.3313   52.4234 C.3     1  ZINC001345966764   -0.1500
     18 C18        -8.9385    0.5353   51.9071 C.3     1  ZINC001345966764    0.0300
     19 H19        -9.5302   -0.0205   51.1798 H       1  ZINC001345966764    0.1200
     20 C20        -9.8192    0.9901   53.0726 C.3     1  ZINC001345966764    0.4600
     21 F21       -10.2858   -0.1299   53.7693 F       1  ZINC001345966764   -0.1700
     22 F22        -9.0704    1.7974   53.9355 F       1  ZINC001345966764   -0.1700
     23 F23       -10.9068    1.7186   52.5789 F       1  ZINC001345966764   -0.1700
     24 O24        -8.3080    1.6721   51.2758 O.3     1  ZINC001345966764   -0.3500
     25 H25        -0.0408    1.4521   51.7861 H       1  ZINC001345966764    0.3500
     26 H26         1.3323    1.4886   52.7238 H       1  ZINC001345966764    0.3600
     27 H27         2.7249    1.7290   50.8028 H       1  ZINC001345966764    0.1100
     28 H28         1.7283    0.2604   50.6673 H       1  ZINC001345966764    0.0700
     29 H29        -0.3222    1.0931   47.9936 H       1  ZINC001345966764    0.1100
     30 H30        -0.0269    0.0461   49.4023 H       1  ZINC001345966764    0.1100
     31 H31        -1.2168    2.1291   50.5848 H       1  ZINC001345966764    0.4200
     32 H32        -5.0959    0.9339   48.9772 H       1  ZINC001345966764    0.4200
     33 H33        -5.8310    2.6816   51.2345 H       1  ZINC001345966764    0.1000
     34 H34        -6.5900    2.9931   49.6549 H       1  ZINC001345966764    0.0900
     35 H35        -6.2186   -0.7914   50.9600 H       1  ZINC001345966764    0.0900
     36 H36        -5.7749    0.4993   52.1211 H       1  ZINC001345966764    0.0900
     37 H37        -7.9968   -1.3906   52.3055 H       1  ZINC001345966764    0.1000
     38 H38        -7.5531   -0.0998   53.4665 H       1  ZINC001345966764    0.0900
@<TRIPOS>BOND
     1     1     2    1
     2     1    25    1
     3     1    26    1
     4     2     3    1
     5     2    27    1
     6     2    28    1
     7     3     4    1
     8     3     5    1
     9     3     6    1
    10     6     7    1
    11     6    29    1
    12     6    30    1
    13     7     8   am
    14     7    31    1
    15     8     9    2
    16     8    10    1
    17    10    11    2
    18    10    12   am
    19    12    13    1
    20    12    32    1
    21    13    14    1
    22    13    33    1
    23    13    34    1
    24    14    15    1
    25    14    24    1
    26    14    16    1
    27    16    17    1
    28    16    35    1
    29    16    36    1
    30    17    18    1
    31    17    37    1
    32    17    38    1
    33    18    19    1
    34    18    20    1
    35    18    24    1
    36    20    21    1
    37    20    22    1
    38    20    23    1
@<TRIPOS>SUBSTRUCTURE
     1 ZINC001345966764        1 TEMP              0 ****  ****    0 ROOT


##########                                Name:    ZINC000545381384
##########                DOCK_Rotatable_Bonds:                   6
##########                         Heavy_Atoms:                  30
##########                    Molecular_Weight:             405.543
##########                DOCK_Rotatable_Bonds:                   6
##########                       Formal_Charge:                0.05
##########                     HBond_Acceptors:                   6
##########                        HBond_Donors:                   1
##########                         Heavy_Atoms:                  30
##########                          Grid_Score:          -29.361246
##########                     Grid_vdw_energy:          -29.642172
##########                      Grid_es_energy:            0.280926
##########           Internal_energy_repulsive:           17.279373

@<TRIPOS>MOLECULE
ZINC000545381384
 61 64 1 0 0
SMALL
USER_CHARGES


@<TRIPOS>ATOM
      1 C1        -11.8454   -2.2172   60.0907 C.3     1  ZINC000545381384   -0.2000
      2 C2        -11.5803   -2.5200   58.6146 C.3     1  ZINC000545381384    0.0500
      3 N3        -12.6825   -1.9904   57.8005 N.3     1  ZINC000545381384   -0.5300
      4 C4        -13.7146   -3.0155   57.5794 C.3     1  ZINC000545381384    0.0500
      5 C5        -14.9813   -2.3289   57.0694 C.3     1  ZINC000545381384   -0.0700
      6 C6        -14.6469   -1.4337   55.9003 C.ar    1  ZINC000545381384    0.1800
      7 C7        -13.3382   -1.0383   55.6497 C.ar    1  ZINC000545381384   -0.0800
      8 C8        -12.1898   -1.4819   56.5164 C.3     1  ZINC000545381384    0.0900
      9 C9        -13.0646   -0.2081   54.5655 C.ar    1  ZINC000545381384   -0.0700
     10 C10       -11.6835    0.2323   54.2750 C.2     1  ZINC000545381384    0.5800
     11 O11       -11.3496    1.3781   54.5061 O.2     1  ZINC000545381384   -0.4800
     12 N12       -10.7947   -0.6366   53.7541 N.am    1  ZINC000545381384   -0.6400
     13 C13        -9.4925   -0.2220   53.4819 C.2     1  ZINC000545381384    0.3000
     14 C14        -8.9331   -0.0820   52.2484 C.2     1  ZINC000545381384   -0.2700
     15 C15        -7.6167    0.3532   52.4218 C.2     1  ZINC000545381384    0.1000
     16 C16        -6.6303    0.6375   51.3186 C.3     1  ZINC000545381384   -0.0300
     17 C17        -6.7057    2.1170   50.9358 C.3     1  ZINC000545381384   -0.0600
     18 C18        -6.3463    2.9767   52.1492 C.3     1  ZINC000545381384   -0.1500
     19 C19        -5.7207    2.4007   49.7999 C.3     1  ZINC000545381384   -0.1400
     20 C20        -8.1256    2.4528   50.4753 C.3     1  ZINC000545381384   -0.1400
     21 N21        -7.3857    0.4727   53.7041 N.2     1  ZINC000545381384   -0.2700
     22 N22        -8.5508    0.1219   54.3982 N.pl3   1  ZINC000545381384   -0.3900
     23 C23        -8.7205    0.1185   55.8533 C.3     1  ZINC000545381384    0.1000
     24 C24       -14.1463    0.2019   53.7484 C.ar    1  ZINC000545381384   -0.0700
     25 C25       -13.9533    1.0350   52.6392 C.ar    1  ZINC000545381384   -0.1100
     26 C26       -15.0226    1.4039   51.8793 C.ar    1  ZINC000545381384   -0.1000
     27 C27       -16.3069    0.9628   52.1921 C.ar    1  ZINC000545381384   -0.1000
     28 C28       -16.5300    0.1538   53.2630 C.ar    1  ZINC000545381384   -0.0900
     29 C29       -15.4504   -0.2485   54.0710 C.ar    1  ZINC000545381384    0.1400
     30 N30       -15.6374   -1.0399   55.1266 N.ar    1  ZINC000545381384   -0.4600
     31 H31       -11.9503   -1.1408   60.2277 H       1  ZINC000545381384    0.0600
     32 H32       -12.7630   -2.7145   60.4046 H       1  ZINC000545381384    0.0600
     33 H33       -11.0115   -2.5802   60.6916 H       1  ZINC000545381384    0.0700
     34 H34       -10.6451   -2.0505   58.3096 H       1  ZINC000545381384    0.0900
     35 H35       -11.5089   -3.5983   58.4721 H       1  ZINC000545381384    0.0800
     36 H36       -13.3641   -3.7340   56.8383 H       1  ZINC000545381384    0.0500
     37 H37       -13.9284   -3.5279   58.5173 H       1  ZINC000545381384    0.0900
     38 H38       -15.7000   -3.0846   56.7525 H       1  ZINC000545381384    0.1000
     39 H39       -15.4163   -1.7310   57.8702 H       1  ZINC000545381384    0.1000
     40 H40       -11.5255   -0.6363   56.6947 H       1  ZINC000545381384    0.0900
     41 H41       -11.6361   -2.2695   56.0052 H       1  ZINC000545381384    0.0700
     42 H42       -11.0613   -1.5506   53.5686 H       1  ZINC000545381384    0.4100
     43 H43        -9.4202   -0.2737   51.3038 H       1  ZINC000545381384    0.1700
     44 H44        -5.6231    0.4021   51.6623 H       1  ZINC000545381384    0.0800
     45 H45        -6.8702    0.0247   50.4498 H       1  ZINC000545381384    0.0800
     46 H46        -5.3348    2.7375   52.4773 H       1  ZINC000545381384    0.0500
     47 H47        -6.4000    4.0307   51.8764 H       1  ZINC000545381384    0.0500
     48 H48        -7.0480    2.7747   52.9584 H       1  ZINC000545381384    0.0800
     49 H49        -5.9767    1.7881   48.9355 H       1  ZINC000545381384    0.0600
     50 H50        -5.7744    3.4546   49.5272 H       1  ZINC000545381384    0.0600
     51 H51        -4.7091    2.1613   50.1280 H       1  ZINC000545381384    0.0600
     52 H52        -8.8273    2.2507   51.2845 H       1  ZINC000545381384    0.0500
     53 H53        -8.1793    3.5068   50.2025 H       1  ZINC000545381384    0.0500
     54 H54        -8.3816    1.8402   49.6108 H       1  ZINC000545381384    0.0500
     55 H55        -9.0770    1.0954   56.1799 H       1  ZINC000545381384    0.0800
     56 H56        -9.4464   -0.6451   56.1326 H       1  ZINC000545381384    0.0800
     57 H57        -7.7644   -0.0975   56.3301 H       1  ZINC000545381384    0.1000
     58 H58       -12.9625    1.3836   52.3876 H       1  ZINC000545381384    0.1300
     59 H59       -14.8729    2.0462   51.0241 H       1  ZINC000545381384    0.1300
     60 H60       -17.1386    1.2684   51.5746 H       1  ZINC000545381384    0.1400
     61 H61       -17.5318   -0.1782   53.4920 H       1  ZINC000545381384    0.1400
@<TRIPOS>BOND
     1     1     2    1
     2     1    31    1
     3     1    32    1
     4     1    33    1
     5     2     3    1
     6     2    34    1
     7     2    35    1
     8     3     8    1
     9     3     4    1
    10     4     5    1
    11     4    36    1
    12     4    37    1
    13     5     6    1
    14     5    38    1
    15     5    39    1
    16     6    30   ar
    17     6     7   ar
    18     7     8    1
    19     7     9   ar
    20     8    40    1
    21     8    41    1
    22     9    10    1
    23     9    24   ar
    24    10    11    2
    25    10    12   am
    26    12    13    1
    27    12    42    1
    28    13    22    1
    29    13    14    2
    30    14    15    1
    31    14    43    1
    32    15    16    1
    33    15    21    2
    34    16    17    1
    35    16    44    1
    36    16    45    1
    37    17    18    1
    38    17    19    1
    39    17    20    1
    40    18    46    1
    41    18    47    1
    42    18    48    1
    43    19    49    1
    44    19    50    1
    45    19    51    1
    46    20    52    1
    47    20    53    1
    48    20    54    1
    49    21    22    1
    50    22    23    1
    51    23    55    1
    52    23    56    1
    53    23    57    1
    54    24    29   ar
    55    24    25   ar
    56    25    26   ar
    57    25    58    1
    58    26    27   ar
    59    26    59    1
    60    27    28   ar
    61    27    60    1
    62    28    29   ar
    63    28    61    1
    64    29    30   ar
@<TRIPOS>SUBSTRUCTURE
     1 ZINC000545381384        1 TEMP              0 ****  ****    0 ROOT


##########                                Name:    ZINC000274267583
##########                DOCK_Rotatable_Bonds:                   5
##########                         Heavy_Atoms:                  24
##########                    Molecular_Weight:             349.407
##########                DOCK_Rotatable_Bonds:                   5
##########                       Formal_Charge:           0.0300001
##########                     HBond_Acceptors:                   7
##########                        HBond_Donors:                   1
##########                         Heavy_Atoms:                  24
##########                          Grid_Score:          -29.343096
##########                     Grid_vdw_energy:          -28.439636
##########                      Grid_es_energy:           -0.903460
##########           Internal_energy_repulsive:           17.454435

@<TRIPOS>MOLECULE
ZINC000274267583
 43 45 1 0 0
SMALL
USER_CHARGES


@<TRIPOS>ATOM
      1 C1        -10.1558    4.3401   55.5351 C.3     1  ZINC000274267583    0.0200
      2 O2        -10.2191    4.6514   54.1419 O.3     1  ZINC000274267583   -0.3100
      3 C3         -9.4699    3.8869   53.3043 C.ar    1  ZINC000274267583    0.1900
      4 C4         -9.4784    4.1380   51.9399 C.ar    1  ZINC000274267583   -0.2300
      5 C5         -8.7156    3.3598   51.0908 C.ar    1  ZINC000274267583    0.0300
      6 C6         -7.9444    2.3312   51.5997 C.ar    1  ZINC000274267583   -0.7200
      7 S7         -6.9731    1.3401   50.5139 S.o2    1  ZINC000274267583    2.7000
      8 O8         -7.3081   -0.0116   50.7968 O.2     1  ZINC000274267583   -0.9500
      9 O9         -7.0996    1.9181   49.2220 O.2     1  ZINC000274267583   -0.9500
     10 N10        -5.3898    1.5325   50.9593 N.am    1  ZINC000274267583   -1.1100
     11 C11        -4.7758    2.8623   50.9261 C.3     1  ZINC000274267583    0.2100
     12 H12        -5.2310    3.4520   50.1305 H       1  ZINC000274267583    0.1000
     13 C13        -5.0003    3.5604   52.2697 C.3     1  ZINC000274267583   -0.1800
     14 C14        -4.1103    4.8088   52.3188 C.3     1  ZINC000274267583    0.0600
     15 O15        -2.7451    4.3897   52.2996 O.3     1  ZINC000274267583   -0.3100
     16 C16        -2.3701    3.4907   51.3513 C.ar    1  ZINC000274267583    0.1100
     17 C17        -1.0147    3.3465   51.0746 C.ar    1  ZINC000274267583   -0.1100
     18 C18        -0.5911    2.4416   50.1227 C.ar    1  ZINC000274267583   -0.1600
     19 C19        -1.5201    1.6720   49.4389 C.ar    1  ZINC000274267583    0.0900
     20 O20        -1.1063    0.7773   48.5022 O.3     1  ZINC000274267583   -0.3200
     21 C21        -2.0556   -0.2028   48.0771 C.3     1  ZINC000274267583    0.0300
     22 C22        -2.8710    1.8162   49.7121 C.ar    1  ZINC000274267583   -0.1000
     23 C23        -3.2970    2.7257   50.6663 C.ar    1  ZINC000274267583   -0.1400
     24 C24        -7.9339    2.0792   52.9591 C.ar    1  ZINC000274267583    0.0200
     25 C25        -8.6909    2.8579   53.8131 C.ar    1  ZINC000274267583   -0.1700
     26 H26       -10.4921    3.3156   55.6941 H       1  ZINC000274267583    0.0600
     27 H27        -9.1285    4.4437   55.8843 H       1  ZINC000274267583    0.0600
     28 H28       -10.7987    5.0238   56.0896 H       1  ZINC000274267583    0.1100
     29 H29       -10.0811    4.9409   51.5420 H       1  ZINC000274267583    0.1400
     30 H30        -8.7220    3.5550   50.0286 H       1  ZINC000274267583    0.1400
     31 H31        -4.8687    0.7647   51.2420 H       1  ZINC000274267583    0.4200
     32 H32        -6.0466    3.8512   52.3623 H       1  ZINC000274267583    0.1000
     33 H33        -4.7326    2.8862   53.0832 H       1  ZINC000274267583    0.0900
     34 H34        -4.3132    5.4386   51.4525 H       1  ZINC000274267583    0.0700
     35 H35        -4.3103    5.3665   53.2337 H       1  ZINC000274267583    0.1200
     36 H36        -0.2906    3.9456   51.6068 H       1  ZINC000274267583    0.1400
     37 H37         0.4622    2.3333   49.9104 H       1  ZINC000274267583    0.1400
     38 H38        -2.3699   -0.7995   48.9334 H       1  ZINC000274267583    0.0600
     39 H39        -2.9227    0.2954   47.6435 H       1  ZINC000274267583    0.0600
     40 H40        -1.5981   -0.8517   47.3303 H       1  ZINC000274267583    0.1000
     41 H41        -3.5944    1.2170   49.1793 H       1  ZINC000274267583    0.1300
     42 H42        -7.3304    1.2754   53.3543 H       1  ZINC000274267583    0.1500
     43 H43        -8.6822    2.6607   54.8748 H       1  ZINC000274267583    0.1400
@<TRIPOS>BOND
     1     1     2    1
     2     1    26    1
     3     1    27    1
     4     1    28    1
     5     2     3    1
     6     3    25   ar
     7     3     4   ar
     8     4     5   ar
     9     4    29    1
    10     5     6   ar
    11     5    30    1
    12     6     7    1
    13     6    24   ar
    14     7     8    2
    15     7     9    2
    16     7    10   am
    17    10    11    1
    18    10    31    1
    19    11    12    1
    20    11    23    1
    21    11    13    1
    22    13    14    1
    23    13    32    1
    24    13    33    1
    25    14    15    1
    26    14    34    1
    27    14    35    1
    28    15    16    1
    29    16    23   ar
    30    16    17   ar
    31    17    18   ar
    32    17    36    1
    33    18    19   ar
    34    18    37    1
    35    19    20    1
    36    19    22   ar
    37    20    21    1
    38    21    38    1
    39    21    39    1
    40    21    40    1
    41    22    23   ar
    42    22    41    1
    43    24    25   ar
    44    24    42    1
    45    25    43    1
@<TRIPOS>SUBSTRUCTURE
     1 ZINC000274267583        1 TEMP              0 ****  ****    0 ROOT


##########                                Name:    ZINC000279593480
##########                DOCK_Rotatable_Bonds:                   9
##########                         Heavy_Atoms:                  23
##########                    Molecular_Weight:              340.85
##########                DOCK_Rotatable_Bonds:                   9
##########                       Formal_Charge:          -0.0500002
##########                     HBond_Acceptors:                   6
##########                        HBond_Donors:                   3
##########                         Heavy_Atoms:                  23
##########                          Grid_Score:          -29.341526
##########                     Grid_vdw_energy:          -27.625738
##########                      Grid_es_energy:           -1.715789
##########           Internal_energy_repulsive:           21.024462

@<TRIPOS>MOLECULE
ZINC000279593480
 48 49 1 0 0
SMALL
USER_CHARGES


@<TRIPOS>ATOM
      1 C1         -9.3776    3.3657   66.9715 C.3     1  ZINC000279593480   -0.1400
      2 C2         -8.5777    2.6530   65.8791 C.3     1  ZINC000279593480   -0.1400
      3 C3         -8.8907    1.1557   65.9125 C.3     1  ZINC000279593480    0.1700
      4 H4         -9.9650    1.0115   66.0265 H       1  ZINC000279593480    0.0900
      5 C5         -8.1611    0.5084   67.0912 C.3     1  ZINC000279593480   -0.0900
      6 C6         -6.7478    1.0280   67.1538 C.ar    1  ZINC000279593480   -0.0800
      7 C7         -6.4099    2.0020   68.0748 C.ar    1  ZINC000279593480   -0.1000
      8 C8         -5.1139    2.4788   68.1327 C.ar    1  ZINC000279593480   -0.1100
      9 C9         -4.1547    1.9811   67.2687 C.ar    1  ZINC000279593480   -0.0400
     10 Cl10       -2.5265    2.5791   67.3412 Cl      1  ZINC000279593480   -0.0700
     11 C11        -4.4935    1.0063   66.3473 C.ar    1  ZINC000279593480   -0.1100
     12 C12        -5.7885    0.5262   66.2941 C.ar    1  ZINC000279593480   -0.1000
     13 N13        -8.4448    0.5357   64.6623 N.am    1  ZINC000279593480   -0.7400
     14 C14        -9.2805    0.4703   63.6069 C.2     1  ZINC000279593480    0.7100
     15 O15       -10.4040    0.9274   63.6920 O.2     1  ZINC000279593480   -0.5800
     16 N16        -8.8709   -0.1015   62.4573 N.am    1  ZINC000279593480   -0.7500
     17 C17        -9.7787   -0.1710   61.3096 C.3     1  ZINC000279593480    0.1200
     18 C18        -9.0259   -0.7209   60.0964 C.3     1  ZINC000279593480    0.0900
     19 O19        -7.6238   -0.4771   60.2260 O.3     1  ZINC000279593480   -0.5400
     20 C20        -9.3024   -2.2316   59.9269 C.3     1  ZINC000279593480   -0.1900
     21 C21        -9.9774   -2.3365   58.5413 C.3     1  ZINC000279593480    0.0500
     22 O22        -9.5342   -1.1632   57.8252 O.3     1  ZINC000279593480   -0.3600
     23 C23        -9.5666   -0.0917   58.7932 C.3     1  ZINC000279593480    0.0900
     24 H24       -10.5885    0.2592   58.9368 H       1  ZINC000279593480    0.0800
     25 C25        -8.6670    1.0608   58.3423 C.3     1  ZINC000279593480   -0.1400
     26 H26        -9.1048    2.9591   67.9454 H       1  ZINC000279593480    0.0600
     27 H27        -9.1546    4.4323   66.9477 H       1  ZINC000279593480    0.0400
     28 H28       -10.4431    3.2133   66.7997 H       1  ZINC000279593480    0.0600
     29 H29        -8.8506    3.0595   64.9053 H       1  ZINC000279593480    0.0600
     30 H30        -7.5122    2.8054   66.0509 H       1  ZINC000279593480    0.0700
     31 H31        -8.6795    0.7532   68.0182 H       1  ZINC000279593480    0.0800
     32 H32        -8.1450   -0.5733   66.9588 H       1  ZINC000279593480    0.0900
     33 H33        -7.1588    2.3907   68.7489 H       1  ZINC000279593480    0.1300
     34 H34        -4.8500    3.2400   68.8520 H       1  ZINC000279593480    0.1300
     35 H35        -3.7453    0.6176   65.6724 H       1  ZINC000279593480    0.1300
     36 H36        -6.0531   -0.2350   65.5751 H       1  ZINC000279593480    0.1300
     37 H37        -7.5481    0.1721   64.5940 H       1  ZINC000279593480    0.3900
     38 H38        -7.9750   -0.4672   62.3898 H       1  ZINC000279593480    0.3900
     39 H39       -10.6149   -0.8285   61.5470 H       1  ZINC000279593480    0.0800
     40 H40       -10.1542    0.8269   61.0825 H       1  ZINC000279593480    0.0800
     41 H41        -7.3273   -0.3632   61.1393 H       1  ZINC000279593480    0.3700
     42 H42        -8.3692   -2.7945   59.9407 H       1  ZINC000279593480    0.0900
     43 H43        -9.9754   -2.5866   60.7074 H       1  ZINC000279593480    0.0900
     44 H44        -9.6506   -3.2405   58.0275 H       1  ZINC000279593480    0.1000
     45 H45       -11.0623   -2.3297   58.6462 H       1  ZINC000279593480    0.0600
     46 H46        -9.0311    1.4564   57.3941 H       1  ZINC000279593480    0.0600
     47 H47        -8.6821    1.8493   59.0947 H       1  ZINC000279593480    0.0700
     48 H48        -7.6469    0.6979   58.2167 H       1  ZINC000279593480    0.0700
@<TRIPOS>BOND
     1     1     2    1
     2     1    26    1
     3     1    27    1
     4     1    28    1
     5     2     3    1
     6     2    29    1
     7     2    30    1
     8     3     4    1
     9     3     5    1
    10     3    13    1
    11     5     6    1
    12     5    31    1
    13     5    32    1
    14     6    12   ar
    15     6     7   ar
    16     7     8   ar
    17     7    33    1
    18     8     9   ar
    19     8    34    1
    20     9    10    1
    21     9    11   ar
    22    11    12   ar
    23    11    35    1
    24    12    36    1
    25    13    14   am
    26    13    37    1
    27    14    15    2
    28    14    16   am
    29    16    17    1
    30    16    38    1
    31    17    18    1
    32    17    39    1
    33    17    40    1
    34    18    23    1
    35    18    19    1
    36    18    20    1
    37    19    41    1
    38    20    21    1
    39    20    42    1
    40    20    43    1
    41    21    22    1
    42    21    44    1
    43    21    45    1
    44    22    23    1
    45    23    24    1
    46    23    25    1
    47    25    46    1
    48    25    47    1
    49    25    48    1
@<TRIPOS>SUBSTRUCTURE
     1 ZINC000279593480        1 TEMP              0 ****  ****    0 ROOT


##########                                Name:    ZINC001342629575
##########                DOCK_Rotatable_Bonds:                   9
##########                         Heavy_Atoms:                  29
##########                    Molecular_Weight:             396.533
##########                DOCK_Rotatable_Bonds:                   9
##########                       Formal_Charge:         -0.00999976
##########                     HBond_Acceptors:                   6
##########                        HBond_Donors:                   0
##########                         Heavy_Atoms:                  29
##########                          Grid_Score:          -29.329414
##########                     Grid_vdw_energy:          -29.192251
##########                      Grid_es_energy:           -0.137163
##########           Internal_energy_repulsive:           20.804251

@<TRIPOS>MOLECULE
ZINC001342629575
 61 64 1 0 0
SMALL
USER_CHARGES


@<TRIPOS>ATOM
      1 C1         -8.0483   -2.8176   59.6506 C.2     1  ZINC001342629575   -0.1800
      2 C2         -9.1282   -2.0767   59.6231 C.2     1  ZINC001342629575   -0.1600
      3 C3        -10.4824   -2.7232   59.4856 C.3     1  ZINC001342629575   -0.0800
      4 C4        -11.4389   -1.7586   58.7817 C.3     1  ZINC001342629575    0.0500
      5 H5        -11.4885   -0.8239   59.3401 H       1  ZINC001342629575    0.0900
      6 C6        -10.9393   -1.4844   57.3866 C.2     1  ZINC001342629575    0.2000
      7 N7        -10.1960   -2.2733   56.6636 N.2     1  ZINC001342629575   -0.2700
      8 N8         -9.9544   -1.7295   55.5243 N.2     1  ZINC001342629575   -0.3000
      9 C9        -10.5354   -0.5548   55.4590 C.2     1  ZINC001342629575    0.3400
     10 N10       -10.4992    0.3237   54.3877 N.3     1  ZINC001342629575   -0.4300
     11 C11       -11.7080    0.1758   53.5369 C.3     1  ZINC001342629575    0.0400
     12 C12       -11.2979    0.7690   52.1720 C.3     1  ZINC001342629575   -0.1200
     13 C13        -9.7599    0.6571   52.1320 C.3     1  ZINC001342629575   -0.1200
     14 C14        -9.3701    0.0055   53.4762 C.3     1  ZINC001342629575    0.0700
     15 H15        -9.2677   -1.0735   53.3601 H       1  ZINC001342629575    0.0900
     16 C16        -8.0678    0.6102   54.0045 C.3     1  ZINC001342629575    0.1000
     17 H17        -7.7076    0.0285   54.8530 H       1  ZINC001342629575    0.0700
     18 C18        -8.3068    2.0730   54.4360 C.3     1  ZINC001342629575   -0.1400
     19 C19        -7.0062    2.7744   53.9582 C.3     1  ZINC001342629575   -0.1600
     20 C20        -6.6962    1.9726   52.6690 C.3     1  ZINC001342629575    0.0500
     21 O21        -7.0801    0.6189   52.9672 O.3     1  ZINC001342629575   -0.3700
     22 N22       -11.1869   -0.3642   56.6426 N.pl3   1  ZINC001342629575   -0.4600
     23 C23       -11.9790    0.8030   57.0382 C.3     1  ZINC001342629575    0.1100
     24 C24       -11.0452    1.9090   57.5339 C.3     1  ZINC001342629575    0.0500
     25 O25       -10.4367    1.5039   58.7617 O.3     1  ZINC001342629575   -0.3800
     26 C26        -9.5209    2.4599   59.2996 C.3     1  ZINC001342629575    0.0300
     27 C27       -12.8123   -2.3750   58.7113 C.ar    1  ZINC001342629575   -0.0900
     28 C28       -13.0760   -3.3723   57.7909 C.ar    1  ZINC001342629575   -0.0900
     29 C29       -14.3357   -3.9378   57.7264 C.ar    1  ZINC001342629575   -0.1200
     30 C30       -15.3317   -3.5063   58.5824 C.ar    1  ZINC001342629575   -0.1200
     31 C31       -15.0678   -2.5097   59.5033 C.ar    1  ZINC001342629575   -0.1200
     32 C32       -13.8068   -1.9473   59.5707 C.ar    1  ZINC001342629575   -0.1100
     33 H33        -7.0777   -2.3543   59.7490 H       1  ZINC001342629575    0.1000
     34 H34        -8.1287   -3.8923   59.5792 H       1  ZINC001342629575    0.1000
     35 H35        -9.0479   -1.0023   59.6988 H       1  ZINC001342629575    0.1000
     36 H36       -10.3909   -3.6371   58.8986 H       1  ZINC001342629575    0.0900
     37 H37       -10.8720   -2.9642   60.4746 H       1  ZINC001342629575    0.0800
     38 H38       -11.9715   -0.8765   53.4303 H       1  ZINC001342629575    0.0600
     39 H39       -12.5416    0.7363   53.9601 H       1  ZINC001342629575    0.0800
     40 H40       -11.7407    0.1923   51.3600 H       1  ZINC001342629575    0.0800
     41 H41       -11.6032    1.8133   52.1059 H       1  ZINC001342629575    0.0800
     42 H42        -9.4477    0.0252   51.3004 H       1  ZINC001342629575    0.0800
     43 H43        -9.3103    1.6463   52.0463 H       1  ZINC001342629575    0.0800
     44 H44        -9.1793    2.4886   53.9319 H       1  ZINC001342629575    0.0900
     45 H45        -8.4116    2.1460   55.5186 H       1  ZINC001342629575    0.0800
     46 H46        -7.1866    3.8256   53.7331 H       1  ZINC001342629575    0.0800
     47 H47        -6.2075    2.6631   54.6916 H       1  ZINC001342629575    0.0800
     48 H48        -7.2819    2.3574   51.8341 H       1  ZINC001342629575    0.0600
     49 H49        -5.6318    2.0213   52.4398 H       1  ZINC001342629575    0.0900
     50 H50       -12.5471    1.1642   56.1810 H       1  ZINC001342629575    0.1000
     51 H51       -12.6657    0.5222   57.8369 H       1  ZINC001342629575    0.1100
     52 H52       -10.2715    2.0924   56.7882 H       1  ZINC001342629575    0.0600
     53 H53       -11.6176    2.8223   57.6959 H       1  ZINC001342629575    0.0600
     54 H54        -9.1023    2.0781   60.2309 H       1  ZINC001342629575    0.0900
     55 H55        -8.7170    2.6352   58.5848 H       1  ZINC001342629575    0.0400
     56 H56       -10.0449    3.3958   59.4938 H       1  ZINC001342629575    0.0400
     57 H57       -12.2979   -3.7094   57.1222 H       1  ZINC001342629575    0.1300
     58 H58       -14.5418   -4.7164   57.0070 H       1  ZINC001342629575    0.1200
     59 H59       -16.3161   -3.9475   58.5315 H       1  ZINC001342629575    0.1200
     60 H60       -15.8460   -2.1724   60.1718 H       1  ZINC001342629575    0.1200
     61 H61       -13.6007   -1.1687   60.2903 H       1  ZINC001342629575    0.1200
@<TRIPOS>BOND
     1     1     2    2
     2     1    33    1
     3     1    34    1
     4     2     3    1
     5     2    35    1
     6     3     4    1
     7     3    36    1
     8     3    37    1
     9     4     5    1
    10     4     6    1
    11     4    27    1
    12     6    22    1
    13     6     7    2
    14     7     8    1
    15     8     9    2
    16     9    10    1
    17     9    22    1
    18    10    14    1
    19    10    11    1
    20    11    12    1
    21    11    38    1
    22    11    39    1
    23    12    13    1
    24    12    40    1
    25    12    41    1
    26    13    14    1
    27    13    42    1
    28    13    43    1
    29    14    15    1
    30    14    16    1
    31    16    17    1
    32    16    21    1
    33    16    18    1
    34    18    19    1
    35    18    44    1
    36    18    45    1
    37    19    20    1
    38    19    46    1
    39    19    47    1
    40    20    21    1
    41    20    48    1
    42    20    49    1
    43    22    23    1
    44    23    24    1
    45    23    50    1
    46    23    51    1
    47    24    25    1
    48    24    52    1
    49    24    53    1
    50    25    26    1
    51    26    54    1
    52    26    55    1
    53    26    56    1
    54    27    32   ar
    55    27    28   ar
    56    28    29   ar
    57    28    57    1
    58    29    30   ar
    59    29    58    1
    60    30    31   ar
    61    30    59    1
    62    31    32   ar
    63    31    60    1
    64    32    61    1
@<TRIPOS>SUBSTRUCTURE
     1 ZINC001342629575        1 TEMP              0 ****  ****    0 ROOT


##########                                Name:    ZINC000464867530
##########                DOCK_Rotatable_Bonds:                   8
##########                         Heavy_Atoms:                  30
##########                    Molecular_Weight:              422.49
##########                DOCK_Rotatable_Bonds:                   8
##########                       Formal_Charge:         -0.00999994
##########                     HBond_Acceptors:                   7
##########                        HBond_Donors:                   0
##########                         Heavy_Atoms:                  30
##########                          Grid_Score:          -29.282856
##########                     Grid_vdw_energy:          -28.547417
##########                      Grid_es_energy:           -0.735439
##########           Internal_energy_repulsive:           29.715809

@<TRIPOS>MOLECULE
ZINC000464867530
 59 62 1 0 0
SMALL
USER_CHARGES


@<TRIPOS>ATOM
      1 C1         -8.4139    0.4517   64.4957 C.3     1  ZINC000464867530   -0.1500
      2 C2         -8.1492    0.5435   62.9915 C.3     1  ZINC000464867530   -0.1400
      3 C3         -9.3198   -0.0801   62.2287 C.3     1  ZINC000464867530    0.0900
      4 N4         -9.0883    0.0499   60.7879 N.am    1  ZINC000464867530   -0.6100
      5 C5         -8.5522   -1.0814   60.0271 C.3     1  ZINC000464867530    0.0700
      6 C6         -9.7002   -1.9973   59.5979 C.3     1  ZINC000464867530    0.4300
      7 F7        -10.3342   -2.5137   60.7331 F       1  ZINC000464867530   -0.1700
      8 F8        -10.6220   -1.2662   58.8410 F       1  ZINC000464867530   -0.1800
      9 F9         -9.1941   -3.0495   58.8272 F       1  ZINC000464867530   -0.1800
     10 C10        -9.3688    1.2103   60.1625 C.2     1  ZINC000464867530    0.5300
     11 O11        -9.8126    2.1469   60.7925 O.2     1  ZINC000464867530   -0.5100
     12 C12        -9.1308    1.3443   58.6804 C.3     1  ZINC000464867530   -0.1200
     13 H13        -9.2384    0.3692   58.2051 H       1  ZINC000464867530    0.1000
     14 C14        -7.7176    1.8782   58.4362 C.3     1  ZINC000464867530   -0.1200
     15 C15        -7.4633    1.9835   56.9308 C.3     1  ZINC000464867530   -0.1300
     16 C16        -8.4645    2.9661   56.3153 C.3     1  ZINC000464867530    0.1000
     17 N17        -9.8250    2.5387   56.6691 N.am    1  ZINC000464867530   -0.6100
     18 C18       -10.7563    2.3510   55.7130 C.2     1  ZINC000464867530    0.5500
     19 O19       -11.8762    1.9995   56.0180 O.2     1  ZINC000464867530   -0.5300
     20 C20       -10.4059    2.5781   54.2650 C.3     1  ZINC000464867530   -0.1700
     21 H21        -9.8160    3.4711   54.0582 H       1  ZINC000464867530    0.1300
     22 C22       -11.4328    2.1496   53.2131 C.3     1  ZINC000464867530   -0.1300
     23 C23       -10.1485    1.3488   53.4017 C.3     1  ZINC000464867530   -0.0600
     24 C24       -10.1729   -0.0657   54.0046 C.3     1  ZINC000464867530   -0.0900
     25 C25        -8.7283   -0.5525   53.7546 C.3     1  ZINC000464867530   -0.0800
     26 C26        -8.2456    0.2342   52.5542 C.ar    1  ZINC000464867530   -0.0900
     27 C27        -7.1753    0.0088   51.7059 C.ar    1  ZINC000464867530   -0.1100
     28 C28        -6.9211    0.8750   50.6603 C.ar    1  ZINC000464867530   -0.1100
     29 C29        -7.7382    1.9715   50.4595 C.ar    1  ZINC000464867530   -0.1200
     30 C30        -8.8071    2.1987   51.3045 C.ar    1  ZINC000464867530   -0.1000
     31 C31        -9.0645    1.3320   52.3531 C.ar    1  ZINC000464867530   -0.0700
     32 C32       -10.1515    2.3189   58.0846 C.3     1  ZINC000464867530    0.1300
     33 H33        -9.3317    0.9882   64.7365 H       1  ZINC000464867530    0.0600
     34 H34        -8.5186   -0.5944   64.7830 H       1  ZINC000464867530    0.0600
     35 H35        -7.5800    0.8961   65.0391 H       1  ZINC000464867530    0.0600
     36 H36        -8.0446    1.5897   62.7042 H       1  ZINC000464867530    0.0700
     37 H37        -7.2315    0.0071   62.7507 H       1  ZINC000464867530    0.0700
     38 H38        -9.4025   -1.1352   62.4897 H       1  ZINC000464867530    0.0900
     39 H39       -10.2429    0.4338   62.4963 H       1  ZINC000464867530    0.0900
     40 H40        -8.0328   -0.7113   59.1432 H       1  ZINC000464867530    0.1300
     41 H41        -7.8548   -1.6408   60.6507 H       1  ZINC000464867530    0.1200
     42 H42        -7.6181    2.8639   58.8910 H       1  ZINC000464867530    0.0800
     43 H43        -6.9906    1.1985   58.8806 H       1  ZINC000464867530    0.0800
     44 H44        -6.4485    2.3418   56.7574 H       1  ZINC000464867530    0.0900
     45 H45        -7.5868    1.0028   56.4714 H       1  ZINC000464867530    0.0700
     46 H46        -8.2824    3.9669   56.7072 H       1  ZINC000464867530    0.0700
     47 H47        -8.3532    2.9702   55.2310 H       1  ZINC000464867530    0.0900
     48 H48       -12.3617    1.7035   53.5686 H       1  ZINC000464867530    0.1100
     49 H49       -11.5178    2.7602   52.3142 H       1  ZINC000464867530    0.1100
     50 H50       -10.3908   -0.0288   55.0720 H       1  ZINC000464867530    0.0700
     51 H51       -10.8913   -0.6978   53.4825 H       1  ZINC000464867530    0.0800
     52 H52        -8.1027   -0.3409   54.6217 H       1  ZINC000464867530    0.0800
     53 H53        -8.7220   -1.6200   53.5343 H       1  ZINC000464867530    0.0800
     54 H54        -6.5361   -0.8476   51.8624 H       1  ZINC000464867530    0.1200
     55 H55        -6.0849    0.6958   50.0007 H       1  ZINC000464867530    0.1300
     56 H56        -7.5410    2.6503   49.6430 H       1  ZINC000464867530    0.1300
     57 H57        -9.4445    3.0562   51.1466 H       1  ZINC000464867530    0.1200
     58 H58       -11.1528    1.8965   58.1675 H       1  ZINC000464867530    0.1000
     59 H59       -10.1070    3.2667   58.6213 H       1  ZINC000464867530    0.0800
@<TRIPOS>BOND
     1     1     2    1
     2     1    33    1
     3     1    34    1
     4     1    35    1
     5     2     3    1
     6     2    36    1
     7     2    37    1
     8     3     4    1
     9     3    38    1
    10     3    39    1
    11     4     5    1
    12     4    10   am
    13     5     6    1
    14     5    40    1
    15     5    41    1
    16     6     7    1
    17     6     8    1
    18     6     9    1
    19    10    11    2
    20    10    12    1
    21    12    13    1
    22    12    32    1
    23    12    14    1
    24    14    15    1
    25    14    42    1
    26    14    43    1
    27    15    16    1
    28    15    44    1
    29    15    45    1
    30    16    17    1
    31    16    46    1
    32    16    47    1
    33    17    18   am
    34    17    32    1
    35    18    19    2
    36    18    20    1
    37    20    21    1
    38    20    23    1
    39    20    22    1
    40    22    23    1
    41    22    48    1
    42    22    49    1
    43    23    31    1
    44    23    24    1
    45    24    25    1
    46    24    50    1
    47    24    51    1
    48    25    26    1
    49    25    52    1
    50    25    53    1
    51    26    31   ar
    52    26    27   ar
    53    27    28   ar
    54    27    54    1
    55    28    29   ar
    56    28    55    1
    57    29    30   ar
    58    29    56    1
    59    30    31   ar
    60    30    57    1
    61    32    58    1
    62    32    59    1
@<TRIPOS>SUBSTRUCTURE
     1 ZINC000464867530        1 TEMP              0 ****  ****    0 ROOT


##########                                Name:    ZINC000676204775
##########                DOCK_Rotatable_Bonds:                   4
##########                         Heavy_Atoms:                  25
##########                    Molecular_Weight:             359.452
##########                DOCK_Rotatable_Bonds:                   4
##########                       Formal_Charge:          0.00999978
##########                     HBond_Acceptors:                   8
##########                        HBond_Donors:                   2
##########                         Heavy_Atoms:                  25
##########                          Grid_Score:          -29.279547
##########                     Grid_vdw_energy:          -29.213652
##########                      Grid_es_energy:           -0.065895
##########           Internal_energy_repulsive:            6.193383

@<TRIPOS>MOLECULE
ZINC000676204775
 46 49 1 0 0
SMALL
USER_CHARGES


@<TRIPOS>ATOM
      1 C1        -14.7389   -5.0319   57.0478 C.3     1  ZINC000676204775   -0.1600
      2 C2        -14.7594   -3.5026   57.0059 C.3     1  ZINC000676204775    0.1600
      3 C3        -16.2051   -3.0150   56.8925 C.3     1  ZINC000676204775   -0.1600
      4 N4        -14.1600   -2.9725   58.2331 N.pl3   1  ZINC000676204775   -0.3900
      5 N5        -14.8563   -2.6491   59.4022 N.2     1  ZINC000676204775   -0.2500
      6 C6        -14.0309   -2.2041   60.3061 C.2     1  ZINC000676204775    0.0900
      7 C7        -12.6896   -2.2201   59.7314 C.ar    1  ZINC000676204775   -0.2100
      8 C8        -11.4229   -1.8659   60.2084 C.ar    1  ZINC000676204775    0.0800
      9 C9        -10.3336   -2.0032   59.3973 C.ar    1  ZINC000676204775   -0.7200
     10 S10        -8.7376   -1.5581   59.9968 S.o2    1  ZINC000676204775    2.6900
     11 O11        -8.9356   -0.9989   61.2881 O.2     1  ZINC000676204775   -0.9300
     12 O12        -7.8923   -2.6743   59.7545 O.2     1  ZINC000676204775   -0.9600
     13 N13        -8.1781   -0.3306   59.0363 N.am    1  ZINC000676204775   -1.1100
     14 C14        -8.9244    0.9268   58.9456 C.3     1  ZINC000676204775    0.2400
     15 H15        -9.9648    0.7578   59.2235 H       1  ZINC000676204775    0.1000
     16 C16        -8.8531    1.4686   57.5125 C.3     1  ZINC000676204775   -0.1200
     17 C17        -9.4206    2.8890   57.4680 C.3     1  ZINC000676204775   -0.1200
     18 C18        -8.4465    3.8572   58.1512 C.3     1  ZINC000676204775   -0.0400
     19 C19        -8.0888    3.2898   59.5027 C.2     1  ZINC000676204775   -0.2300
     20 C20        -7.5254    3.9200   60.5499 C.2     1  ZINC000676204775    0.0600
     21 N21        -7.3938    3.0177   61.5480 N.pl3   1  ZINC000676204775   -0.4800
     22 N22        -7.8958    1.7896   61.0911 N.2     1  ZINC000676204775   -0.2400
     23 C23        -8.3106    1.9511   59.8691 C.2     1  ZINC000676204775    0.0500
     24 C24       -10.4713   -2.4908   58.1037 C.ar    1  ZINC000676204775    0.0100
     25 C25       -11.6977   -2.8432   57.6154 C.ar    1  ZINC000676204775   -0.1500
     26 C26       -12.8263   -2.7194   58.4215 C.ar    1  ZINC000676204775    0.1700
     27 H27       -13.7089   -5.3794   57.1285 H       1  ZINC000676204775    0.0600
     28 H28       -15.3082   -5.3795   57.9097 H       1  ZINC000676204775    0.0700
     29 H29       -15.1848   -5.4264   56.1347 H       1  ZINC000676204775    0.0800
     30 H30       -14.1900   -3.1551   56.1439 H       1  ZINC000676204775    0.1000
     31 H31       -16.7745   -3.3625   57.7546 H       1  ZINC000676204775    0.0700
     32 H32       -16.2198   -1.9255   56.8628 H       1  ZINC000676204775    0.0600
     33 H33       -16.6511   -3.4094   55.9795 H       1  ZINC000676204775    0.0800
     34 H34       -14.2924   -1.8809   61.3028 H       1  ZINC000676204775    0.2000
     35 H35       -11.3077   -1.4859   61.2126 H       1  ZINC000676204775    0.1500
     36 H36        -7.3562   -0.4441   58.5338 H       1  ZINC000676204775    0.4200
     37 H37        -7.8147    1.4825   57.1815 H       1  ZINC000676204775    0.0800
     38 H38        -9.4346    0.8251   56.8523 H       1  ZINC000676204775    0.0800
     39 H39        -9.5629    3.1902   56.4302 H       1  ZINC000676204775    0.0700
     40 H40       -10.3791    2.9130   57.9865 H       1  ZINC000676204775    0.0700
     41 H41        -7.5461    3.9610   57.5460 H       1  ZINC000676204775    0.0700
     42 H42        -8.9215    4.8303   58.2750 H       1  ZINC000676204775    0.0700
     43 H43        -7.2317    4.9586   60.5863 H       1  ZINC000676204775    0.1800
     44 H44        -7.0183    3.1891   62.4258 H       1  ZINC000676204775    0.4400
     45 H45        -9.5981   -2.5921   57.4763 H       1  ZINC000676204775    0.1500
     46 H46       -11.7909   -3.2210   56.6079 H       1  ZINC000676204775    0.1300
@<TRIPOS>BOND
     1     1     2    1
     2     1    27    1
     3     1    28    1
     4     1    29    1
     5     2     3    1
     6     2     4    1
     7     2    30    1
     8     3    31    1
     9     3    32    1
    10     3    33    1
    11     4    26    1
    12     4     5    1
    13     5     6    2
    14     6     7    1
    15     6    34    1
    16     7    26   ar
    17     7     8   ar
    18     8     9   ar
    19     8    35    1
    20     9    10    1
    21     9    24   ar
    22    10    11    2
    23    10    12    2
    24    10    13   am
    25    13    14    1
    26    13    36    1
    27    14    15    1
    28    14    23    1
    29    14    16    1
    30    16    17    1
    31    16    37    1
    32    16    38    1
    33    17    18    1
    34    17    39    1
    35    17    40    1
    36    18    19    1
    37    18    41    1
    38    18    42    1
    39    19    23    1
    40    19    20    2
    41    20    21    1
    42    20    43    1
    43    21    22    1
    44    21    44    1
    45    22    23    2
    46    24    25   ar
    47    24    45    1
    48    25    26   ar
    49    25    46    1
@<TRIPOS>SUBSTRUCTURE
     1 ZINC000676204775        1 TEMP              0 ****  ****    0 ROOT


##########                                Name:    ZINC001122903793
##########                DOCK_Rotatable_Bonds:                   4
##########                         Heavy_Atoms:                  25
##########                    Molecular_Weight:             399.968
##########                DOCK_Rotatable_Bonds:                   4
##########                       Formal_Charge:           0.0100003
##########                     HBond_Acceptors:                   9
##########                        HBond_Donors:                   0
##########                         Heavy_Atoms:                  25
##########                          Grid_Score:          -29.225946
##########                     Grid_vdw_energy:          -29.864698
##########                      Grid_es_energy:            0.638752
##########           Internal_energy_repulsive:           16.850086

@<TRIPOS>MOLECULE
ZINC001122903793
 47 50 1 0 0
SMALL
USER_CHARGES


@<TRIPOS>ATOM
      1 C1         -5.4478    1.8060   49.9891 C.3     1  ZINC001122903793   -0.1400
      2 C2         -6.8460    2.0273   50.5697 C.3     1  ZINC001122903793   -0.0400
      3 H3         -7.5724    1.4379   50.0100 H       1  ZINC001122903793    0.1000
      4 S4         -7.2792    3.7908   50.4649 S.3     1  ZINC001122903793   -0.2500
      5 C5         -8.8138    3.8591   51.4391 C.3     1  ZINC001122903793   -0.0800
      6 C6         -8.5603    3.1885   52.7935 C.3     1  ZINC001122903793    0.0700
      7 N7         -8.2101    1.7804   52.5939 N.3     1  ZINC001122903793   -0.4800
      8 C8         -8.3628    1.0597   53.7669 C.2     1  ZINC001122903793    0.3700
      9 N9         -7.6020    1.1392   54.8336 N.2     1  ZINC001122903793   -0.2900
     10 N10        -8.0255    0.3335   55.7407 N.2     1  ZINC001122903793   -0.2400
     11 C11        -9.0858   -0.3119   55.3075 C.2     1  ZINC001122903793    0.2600
     12 C12        -9.8607   -1.3204   56.0487 C.2     1  ZINC001122903793   -0.1600
     13 C13       -10.1363   -1.2993   57.3744 C.2     1  ZINC001122903793    0.1600
     14 Cl14       -9.5947   -0.0327   58.4309 Cl      1  ZINC001122903793    0.0300
     15 N15       -10.8495   -2.3215   57.7916 N.2     1  ZINC001122903793   -0.4600
     16 C16       -11.1943   -3.2020   56.9117 C.2     1  ZINC001122903793    0.0300
     17 S17       -10.6020   -2.7669   55.3683 S.3     1  ZINC001122903793    0.2200
     18 N18        -9.3369    0.1381   54.0306 N.pl3   1  ZINC001122903793   -0.4600
     19 C19       -10.4180   -0.2876   53.1383 C.3     1  ZINC001122903793    0.1100
     20 C20       -11.6766    0.5297   53.4360 C.3     1  ZINC001122903793    0.0700
     21 H21       -11.4066    1.5054   53.8399 H       1  ZINC001122903793    0.0800
     22 C22       -12.5263    0.6960   52.1509 C.3     1  ZINC001122903793   -0.1500
     23 C23       -13.9369    0.9273   52.7581 C.3     1  ZINC001122903793   -0.1500
     24 C24       -13.8990    0.0412   54.0219 C.3     1  ZINC001122903793    0.0500
     25 O25       -12.5223   -0.1752   54.3587 O.3     1  ZINC001122903793   -0.3700
     26 C26        -6.8648    1.6042   52.0425 C.3     1  ZINC001122903793    0.1000
     27 H27        -6.1608    2.2212   52.6010 H       1  ZINC001122903793    0.0800
     28 C28        -6.4562    0.1344   52.1590 C.3     1  ZINC001122903793   -0.1500
     29 H29        -5.1881    0.7497   50.0595 H       1  ZINC001122903793    0.0800
     30 H30        -5.4356    2.1142   48.9436 H       1  ZINC001122903793    0.0700
     31 H31        -4.7237    2.3964   50.5505 H       1  ZINC001122903793    0.0700
     32 H32        -9.1035    4.8985   51.5935 H       1  ZINC001122903793    0.1200
     33 H33        -9.6066    3.3296   50.9109 H       1  ZINC001122903793    0.0900
     34 H34        -7.7410    3.6969   53.3018 H       1  ZINC001122903793    0.0700
     35 H35        -9.4605    3.2547   53.4045 H       1  ZINC001122903793    0.0900
     36 H36       -11.7782   -4.0860   57.1208 H       1  ZINC001122903793    0.2100
     37 H37       -10.1180   -0.1286   52.1025 H       1  ZINC001122903793    0.1200
     38 H38       -10.6255   -1.3457   53.2981 H       1  ZINC001122903793    0.1000
     39 H39       -12.2004    1.5612   51.5737 H       1  ZINC001122903793    0.0900
     40 H40       -12.5032   -0.2097   51.5449 H       1  ZINC001122903793    0.0800
     41 H41       -14.0781    1.9750   53.0231 H       1  ZINC001122903793    0.0800
     42 H42       -14.7145    0.5913   52.0720 H       1  ZINC001122903793    0.0900
     43 H43       -14.4041    0.5481   54.8441 H       1  ZINC001122903793    0.0700
     44 H44       -14.3855   -0.9129   53.8192 H       1  ZINC001122903793    0.0700
     45 H45        -7.1611   -0.4839   51.6031 H       1  ZINC001122903793    0.0600
     46 H46        -5.4550    0.0020   51.7489 H       1  ZINC001122903793    0.0800
     47 H47        -6.4614   -0.1621   53.2078 H       1  ZINC001122903793    0.0600
@<TRIPOS>BOND
     1     1     2    1
     2     1    29    1
     3     1    30    1
     4     1    31    1
     5     2     3    1
     6     2    26    1
     7     2     4    1
     8     4     5    1
     9     5     6    1
    10     5    32    1
    11     5    33    1
    12     6     7    1
    13     6    34    1
    14     6    35    1
    15     7     8    1
    16     7    26    1
    17     8    18    1
    18     8     9    2
    19     9    10    1
    20    10    11    2
    21    11    12    1
    22    11    18    1
    23    12    17    1
    24    12    13    2
    25    13    14    1
    26    13    15    1
    27    15    16    2
    28    16    17    1
    29    16    36    1
    30    18    19    1
    31    19    20    1
    32    19    37    1
    33    19    38    1
    34    20    21    1
    35    20    25    1
    36    20    22    1
    37    22    23    1
    38    22    39    1
    39    22    40    1
    40    23    24    1
    41    23    41    1
    42    23    42    1
    43    24    25    1
    44    24    43    1
    45    24    44    1
    46    26    27    1
    47    26    28    1
    48    28    45    1
    49    28    46    1
    50    28    47    1
@<TRIPOS>SUBSTRUCTURE
     1 ZINC001122903793        1 TEMP              0 ****  ****    0 ROOT


##########                                Name:    ZINC000494558165
##########                DOCK_Rotatable_Bonds:                  11
##########                         Heavy_Atoms:                  28
##########                    Molecular_Weight:             409.506
##########                DOCK_Rotatable_Bonds:                  11
##########                       Formal_Charge:        -6.55651e-07
##########                     HBond_Acceptors:                   9
##########                        HBond_Donors:                   3
##########                         Heavy_Atoms:                  28
##########                          Grid_Score:          -29.206696
##########                     Grid_vdw_energy:          -27.280556
##########                      Grid_es_energy:           -1.926140
##########           Internal_energy_repulsive:           32.967625

@<TRIPOS>MOLECULE
ZINC000494558165
 55 57 1 0 0
SMALL
USER_CHARGES


@<TRIPOS>ATOM
      1 O1         -8.0327   -0.0754   56.1544 O.2     1  ZINC000494558165   -0.4400
      2 C2         -8.1186    1.0782   55.7917 C.2     1  ZINC000494558165    0.5100
      3 C3         -8.1429    1.4060   54.3210 C.3     1  ZINC000494558165    0.0300
      4 N4         -8.9836    0.4294   53.6156 N.3     1  ZINC000494558165   -0.5000
      5 C5        -10.3880    0.5469   54.0301 C.3     1  ZINC000494558165    0.0500
      6 C6        -11.0567   -0.8275   53.9613 C.3     1  ZINC000494558165   -0.1100
      7 C7        -10.2559   -1.8267   54.7986 C.3     1  ZINC000494558165    0.0800
      8 O8        -10.8892   -3.1066   54.7473 O.3     1  ZINC000494558165   -0.5700
      9 C9         -8.8504    0.5745   52.1598 C.3     1  ZINC000494558165    0.1200
     10 H10        -9.8336    0.6643   51.6978 H       1  ZINC000494558165    0.1000
     11 C11        -8.0889   -0.6309   51.5688 C.3     1  ZINC000494558165   -0.1200
     12 C12        -6.6276   -0.1338   51.5721 C.3     1  ZINC000494558165   -0.0900
     13 C13        -6.7223    1.3747   51.4903 C.ar    1  ZINC000494558165   -0.0900
     14 C14        -5.7668    2.3164   51.1480 C.ar    1  ZINC000494558165   -0.1100
     15 C15        -6.0859    3.6606   51.1430 C.ar    1  ZINC000494558165   -0.1100
     16 C16        -7.3629    4.0675   51.4805 C.ar    1  ZINC000494558165   -0.1200
     17 C17        -8.3176    3.1293   51.8223 C.ar    1  ZINC000494558165   -0.1000
     18 C18        -8.0018    1.7833   51.8279 C.ar    1  ZINC000494558165   -0.1300
     19 N19        -8.1981    2.0672   56.7039 N.am    1  ZINC000494558165   -0.6900
     20 C20        -8.1763    1.7741   58.0193 C.2     1  ZINC000494558165    0.7000
     21 O21        -8.0867    0.6178   58.3828 O.2     1  ZINC000494558165   -0.5200
     22 N22        -8.2542    2.7632   58.9315 N.am    1  ZINC000494558165   -0.7300
     23 C23        -8.2288    2.4447   60.3612 C.3     1  ZINC000494558165    0.1700
     24 H24        -7.3429    1.8517   60.5889 H       1  ZINC000494558165    0.1200
     25 C25        -8.2043    3.7468   61.1809 C.3     1  ZINC000494558165   -0.1400
     26 C26        -8.5121    3.3529   62.6486 C.3     1  ZINC000494558165   -0.5800
     27 S27        -9.8709    2.1376   62.4588 S.o2    1  ZINC000494558165    2.4000
     28 O28        -9.6400    1.0340   63.3238 O.2     1  ZINC000494558165   -0.9300
     29 O29       -11.1186    2.8166   62.4953 O.2     1  ZINC000494558165   -0.9300
     30 C30        -9.4951    1.6504   60.7379 C.3     1  ZINC000494558165   -0.6200
     31 H31        -8.5509    2.4067   54.1784 H       1  ZINC000494558165    0.0700
     32 H32        -7.1289    1.3670   53.9232 H       1  ZINC000494558165    0.1200
     33 H33       -10.4349    0.9231   55.0520 H       1  ZINC000494558165    0.0900
     34 H34       -10.9067    1.2370   53.3647 H       1  ZINC000494558165    0.0400
     35 H35       -12.0720   -0.7575   54.3519 H       1  ZINC000494558165    0.0700
     36 H36       -11.0883   -1.1646   52.9253 H       1  ZINC000494558165    0.0800
     37 H37        -9.2441   -1.9057   54.4007 H       1  ZINC000494558165    0.0500
     38 H38       -10.2140   -1.4833   55.8323 H       1  ZINC000494558165    0.0400
     39 H39       -10.3712   -3.8182   55.1479 H       1  ZINC000494558165    0.3800
     40 H40        -8.2007   -1.5092   52.2046 H       1  ZINC000494558165    0.0900
     41 H41        -8.4244   -0.8410   50.5533 H       1  ZINC000494558165    0.0800
     42 H42        -6.1288   -0.4320   52.4941 H       1  ZINC000494558165    0.0800
     43 H43        -6.0926   -0.5266   50.7076 H       1  ZINC000494558165    0.0800
     44 H44        -4.7686    1.9993   50.8844 H       1  ZINC000494558165    0.1200
     45 H45        -5.3384    4.3926   50.8752 H       1  ZINC000494558165    0.1300
     46 H46        -7.6140    5.1179   51.4775 H       1  ZINC000494558165    0.1200
     47 H47        -9.3152    3.4481   52.0864 H       1  ZINC000494558165    0.1200
     48 H48        -8.2709    2.9899   56.4139 H       1  ZINC000494558165    0.4100
     49 H49        -8.3270    3.6859   58.6414 H       1  ZINC000494558165    0.4000
     50 H50        -7.2194    4.2096   61.1173 H       1  ZINC000494558165    0.1100
     51 H51        -8.9650    4.4347   60.8116 H       1  ZINC000494558165    0.0900
     52 H52        -7.6423    2.8909   63.1157 H       1  ZINC000494558165    0.1400
     53 H53        -8.8451    4.2193   63.2201 H       1  ZINC000494558165    0.1400
     54 H54       -10.3216    1.9183   60.0797 H       1  ZINC000494558165    0.1500
     55 H55        -9.2975    0.5799   60.6822 H       1  ZINC000494558165    0.1500
@<TRIPOS>BOND
     1     1     2    2
     2     2     3    1
     3     2    19   am
     4     3     4    1
     5     3    31    1
     6     3    32    1
     7     4     5    1
     8     4     9    1
     9     5     6    1
    10     5    33    1
    11     5    34    1
    12     6     7    1
    13     6    35    1
    14     6    36    1
    15     7     8    1
    16     7    37    1
    17     7    38    1
    18     8    39    1
    19     9    10    1
    20     9    18    1
    21     9    11    1
    22    11    12    1
    23    11    40    1
    24    11    41    1
    25    12    13    1
    26    12    42    1
    27    12    43    1
    28    13    18   ar
    29    13    14   ar
    30    14    15   ar
    31    14    44    1
    32    15    16   ar
    33    15    45    1
    34    16    17   ar
    35    16    46    1
    36    17    18   ar
    37    17    47    1
    38    19    20   am
    39    19    48    1
    40    20    21    2
    41    20    22   am
    42    22    23    1
    43    22    49    1
    44    23    24    1
    45    23    30    1
    46    23    25    1
    47    25    26    1
    48    25    50    1
    49    25    51    1
    50    26    27    1
    51    26    52    1
    52    26    53    1
    53    27    28    2
    54    27    29    2
    55    27    30    1
    56    30    54    1
    57    30    55    1
@<TRIPOS>SUBSTRUCTURE
     1 ZINC000494558165        1 TEMP              0 ****  ****    0 ROOT


##########                                Name:    ZINC000502834785
##########                DOCK_Rotatable_Bonds:                   9
##########                         Heavy_Atoms:                  26
##########                    Molecular_Weight:             356.468
##########                DOCK_Rotatable_Bonds:                   9
##########                       Formal_Charge:           0.0199998
##########                     HBond_Acceptors:                   6
##########                        HBond_Donors:                   2
##########                         Heavy_Atoms:                  26
##########                          Grid_Score:          -29.177010
##########                     Grid_vdw_energy:          -28.656141
##########                      Grid_es_energy:           -0.520869
##########           Internal_energy_repulsive:           30.716238

@<TRIPOS>MOLECULE
ZINC000502834785
 54 56 1 0 0
SMALL
USER_CHARGES


@<TRIPOS>ATOM
      1 C1          2.7768    2.3355   49.6774 C.3     1  ZINC000502834785   -0.1800
      2 C2          2.0882    0.9978   49.9558 C.3     1  ZINC000502834785    0.0800
      3 C3          2.8393    0.2587   51.0652 C.3     1  ZINC000502834785   -0.1500
      4 O4          0.7402    1.2327   50.3679 O.3     1  ZINC000502834785   -0.3800
      5 C5         -0.1958    1.2885   49.2896 C.3     1  ZINC000502834785    0.1000
      6 C6         -1.4875    1.8931   49.7765 C.ar    1  ZINC000502834785   -0.0800
      7 C7         -2.6942    1.4400   49.2770 C.ar    1  ZINC000502834785   -0.1000
      8 C8         -3.8790    1.9946   49.7237 C.ar    1  ZINC000502834785   -0.1000
      9 C9         -3.8572    3.0019   50.6701 C.ar    1  ZINC000502834785   -0.1000
     10 C10        -5.1489    3.6069   51.1566 C.3     1  ZINC000502834785    0.1600
     11 N11        -5.6224    2.8685   52.3300 N.am    1  ZINC000502834785   -0.7300
     12 C12        -6.7778    3.2218   52.9273 C.2     1  ZINC000502834785    0.5100
     13 O13        -7.4261    4.1500   52.4927 O.2     1  ZINC000502834785   -0.5200
     14 C14        -7.2639    2.4633   54.1355 C.3     1  ZINC000502834785    0.0300
     15 N15        -8.6968    2.7213   54.3315 N.3     1  ZINC000502834785   -0.5000
     16 C16        -9.1045    2.4188   55.7201 C.3     1  ZINC000502834785    0.0500
     17 C17       -10.5551    1.8890   55.6000 C.3     1  ZINC000502834785   -0.1300
     18 C18       -10.4833    1.0754   54.2811 C.3     1  ZINC000502834785   -0.1300
     19 C19        -9.5113    1.9032   53.4144 C.3     1  ZINC000502834785    0.1500
     20 H20       -10.0738    2.5499   52.7409 H       1  ZINC000502834785    0.1100
     21 C21        -8.6234    0.9823   52.6177 C.2     1  ZINC000502834785    0.0600
     22 N22        -8.2234   -0.2073   52.9875 N.2     1  ZINC000502834785   -0.2900
     23 N23        -7.4166   -0.7335   51.9704 N.pl3   1  ZINC000502834785   -0.4800
     24 C24        -7.3474    0.1807   50.9803 C.2     1  ZINC000502834785    0.0600
     25 C25        -8.0895    1.2492   51.3528 C.2     1  ZINC000502834785   -0.2600
     26 C26        -2.6506    3.4541   51.1705 C.ar    1  ZINC000502834785   -0.1000
     27 C27        -1.4659    2.8968   50.7267 C.ar    1  ZINC000502834785   -0.1000
     28 H28         2.2418    2.8620   48.8871 H       1  ZINC000502834785    0.0600
     29 H29         2.7743    2.9410   50.5837 H       1  ZINC000502834785    0.0600
     30 H30         3.8051    2.1563   49.3631 H       1  ZINC000502834785    0.0700
     31 H31         2.0909    0.3922   49.0495 H       1  ZINC000502834785    0.0600
     32 H32         2.8367    0.8643   51.9714 H       1  ZINC000502834785    0.0600
     33 H33         2.3487   -0.6942   51.2634 H       1  ZINC000502834785    0.0600
     34 H34         3.8675    0.0795   50.7507 H       1  ZINC000502834785    0.0700
     35 H35         0.2120    1.9015   48.4858 H       1  ZINC000502834785    0.0600
     36 H36        -0.3833    0.2809   48.9187 H       1  ZINC000502834785    0.0600
     37 H37        -2.7113    0.6530   48.5376 H       1  ZINC000502834785    0.1300
     38 H38        -4.8218    1.6412   49.3329 H       1  ZINC000502834785    0.1300
     39 H39        -4.9827    4.6498   51.4264 H       1  ZINC000502834785    0.0800
     40 H40        -5.8969    3.5508   50.3659 H       1  ZINC000502834785    0.0800
     41 H41        -5.1045    2.1253   52.6769 H       1  ZINC000502834785    0.4000
     42 H42        -7.1045    1.3959   53.9827 H       1  ZINC000502834785    0.1000
     43 H43        -6.7119    2.7908   55.0164 H       1  ZINC000502834785    0.0800
     44 H44        -8.4556    1.6547   56.1482 H       1  ZINC000502834785    0.0400
     45 H45        -9.0799    3.3230   56.3284 H       1  ZINC000502834785    0.1000
     46 H46       -10.8067    1.2450   56.4428 H       1  ZINC000502834785    0.0800
     47 H47       -11.2653    2.7113   55.5133 H       1  ZINC000502834785    0.0800
     48 H48       -10.0826    0.0784   54.4645 H       1  ZINC000502834785    0.0800
     49 H49       -11.4648    1.0168   53.8105 H       1  ZINC000502834785    0.0800
     50 H50        -6.9841   -1.6018   51.9767 H       1  ZINC000502834785    0.4400
     51 H51        -6.8011    0.0765   50.0545 H       1  ZINC000502834785    0.1800
     52 H52        -8.2381    2.1512   50.7778 H       1  ZINC000502834785    0.1500
     53 H53        -2.6335    4.2408   51.9103 H       1  ZINC000502834785    0.1300
     54 H54        -0.5232    3.2500   51.1177 H       1  ZINC000502834785    0.1200
@<TRIPOS>BOND
     1     1     2    1
     2     1    28    1
     3     1    29    1
     4     1    30    1
     5     2     3    1
     6     2     4    1
     7     2    31    1
     8     3    32    1
     9     3    33    1
    10     3    34    1
    11     4     5    1
    12     5     6    1
    13     5    35    1
    14     5    36    1
    15     6    27   ar
    16     6     7   ar
    17     7     8   ar
    18     7    37    1
    19     8     9   ar
    20     8    38    1
    21     9    10    1
    22     9    26   ar
    23    10    11    1
    24    10    39    1
    25    10    40    1
    26    11    12   am
    27    11    41    1
    28    12    13    2
    29    12    14    1
    30    14    15    1
    31    14    42    1
    32    14    43    1
    33    15    19    1
    34    15    16    1
    35    16    17    1
    36    16    44    1
    37    16    45    1
    38    17    18    1
    39    17    46    1
    40    17    47    1
    41    18    19    1
    42    18    48    1
    43    18    49    1
    44    19    20    1
    45    19    21    1
    46    21    25    1
    47    21    22    2
    48    22    23    1
    49    23    24    1
    50    23    50    1
    51    24    25    2
    52    24    51    1
    53    25    52    1
    54    26    27   ar
    55    26    53    1
    56    27    54    1
@<TRIPOS>SUBSTRUCTURE
     1 ZINC000502834785        1 TEMP              0 ****  ****    0 ROOT


##########                                Name:    ZINC000864730443
##########                DOCK_Rotatable_Bonds:                  10
##########                         Heavy_Atoms:                  25
##########                    Molecular_Weight:             356.462
##########                DOCK_Rotatable_Bonds:                  10
##########                       Formal_Charge:           0.0299988
##########                     HBond_Acceptors:                   7
##########                        HBond_Donors:                   2
##########                         Heavy_Atoms:                  25
##########                          Grid_Score:          -29.172958
##########                     Grid_vdw_energy:          -27.768927
##########                      Grid_es_energy:           -1.404032
##########           Internal_energy_repulsive:           22.870710

@<TRIPOS>MOLECULE
ZINC000864730443
 57 58 1 0 0
SMALL
USER_CHARGES


@<TRIPOS>ATOM
      1 C1        -15.6484   -1.0353   58.0743 C.3     1  ZINC000864730443   -0.1800
      2 C2        -15.5573   -2.4996   58.5083 C.3     1  ZINC000864730443    0.1400
      3 C3        -16.9659   -3.0842   58.6299 C.3     1  ZINC000864730443   -0.1800
      4 C4        -14.7645   -3.2918   57.4668 C.3     1  ZINC000864730443   -0.1400
      5 O5        -14.8862   -2.5826   59.7933 O.3     1  ZINC000864730443   -0.3600
      6 C6        -13.9593   -1.6434   60.0607 C.2     1  ZINC000864730443    0.6500
      7 O7        -14.1050   -0.8992   61.0102 O.2     1  ZINC000864730443   -0.5700
      8 N8        -12.8702   -1.5286   59.2753 N.am    1  ZINC000864730443   -0.7100
      9 C9        -11.8608   -0.5077   59.5674 C.3     1  ZINC000864730443    0.1500
     10 C10       -10.4887   -0.9994   59.1022 C.3     1  ZINC000864730443   -0.1300
     11 C11       -10.5495   -1.3508   57.6380 C.2     1  ZINC000864730443    0.5300
     12 O12       -10.6330   -2.5114   57.2960 O.2     1  ZINC000864730443   -0.5300
     13 N13       -10.5109   -0.3755   56.7087 N.am    1  ZINC000864730443   -0.7200
     14 C14       -10.5700   -0.7171   55.2853 C.3     1  ZINC000864730443    0.1200
     15 C15        -9.1801   -0.5608   54.6652 C.3     1  ZINC000864730443   -0.1300
     16 C16        -8.9060    0.9199   54.3946 C.3     1  ZINC000864730443    0.0800
     17 H17        -8.9105    1.4817   55.3287 H       1  ZINC000864730443    0.0800
     18 C18        -7.5470    1.0918   53.6704 C.3     1  ZINC000864730443   -0.1500
     19 C19        -7.7669    2.4495   52.9491 C.3     1  ZINC000864730443   -0.1600
     20 C20        -9.2710    2.3977   52.6048 C.3     1  ZINC000864730443    0.0500
     21 O21        -9.8860    1.4511   53.4887 O.3     1  ZINC000864730443   -0.3800
     22 C22        -9.4481    0.1029   59.3227 C.3     1  ZINC000864730443   -0.1000
     23 C23        -8.0668   -0.4275   58.9265 C.3     1  ZINC000864730443   -0.1600
     24 C24        -7.7599   -1.6874   59.7403 C.3     1  ZINC000864730443    0.0600
     25 O25        -8.7818   -2.6601   59.5134 O.3     1  ZINC000864730443   -0.3700
     26 C26       -10.0883   -2.2372   59.9092 C.3     1  ZINC000864730443    0.0800
     27 H27       -16.2133   -0.4709   58.8162 H       1  ZINC000864730443    0.0900
     28 H28       -14.6449   -0.6188   57.9876 H       1  ZINC000864730443    0.0600
     29 H29       -16.1522   -0.9730   57.1097 H       1  ZINC000864730443    0.0700
     30 H30       -17.4696   -3.0219   57.6653 H       1  ZINC000864730443    0.0700
     31 H31       -16.9009   -4.1274   58.9391 H       1  ZINC000864730443    0.0600
     32 H32       -17.5307   -2.5198   59.3719 H       1  ZINC000864730443    0.0900
     33 H33       -13.7608   -2.8753   57.3801 H       1  ZINC000864730443    0.0700
     34 H34       -14.6995   -4.3351   57.7760 H       1  ZINC000864730443    0.0700
     35 H35       -15.2682   -3.2295   56.5022 H       1  ZINC000864730443    0.0800
     36 H36       -12.7545   -2.1218   58.5166 H       1  ZINC000864730443    0.4100
     37 H37       -12.1136    0.4138   59.0429 H       1  ZINC000864730443    0.0900
     38 H38       -11.8345   -0.3194   60.6407 H       1  ZINC000864730443    0.0800
     39 H39       -10.4442    0.5528   56.9823 H       1  ZINC000864730443    0.4000
     40 H40       -10.9041   -1.7486   55.1730 H       1  ZINC000864730443    0.0700
     41 H41       -11.2701   -0.0514   54.7806 H       1  ZINC000864730443    0.0700
     42 H42        -8.4294   -0.9495   55.3533 H       1  ZINC000864730443    0.0800
     43 H43        -9.1359   -1.1157   53.7280 H       1  ZINC000864730443    0.0800
     44 H44        -6.7263    1.1548   54.3849 H       1  ZINC000864730443    0.0900
     45 H45        -7.3799    0.2884   52.9529 H       1  ZINC000864730443    0.0800
     46 H46        -7.5504    3.2831   53.6171 H       1  ZINC000864730443    0.0800
     47 H47        -7.1635    2.5098   52.0434 H       1  ZINC000864730443    0.0800
     48 H48        -9.7176    3.3813   52.7500 H       1  ZINC000864730443    0.0700
     49 H49        -9.4028    2.0794   51.5707 H       1  ZINC000864730443    0.0700
     50 H50        -9.6969    0.9676   58.7074 H       1  ZINC000864730443    0.0800
     51 H51        -9.4401    0.3918   60.3737 H       1  ZINC000864730443    0.0800
     52 H52        -8.0608   -0.6698   57.8638 H       1  ZINC000864730443    0.0900
     53 H53        -7.3123    0.3318   59.1322 H       1  ZINC000864730443    0.0800
     54 H54        -6.7966   -2.0935   59.4320 H       1  ZINC000864730443    0.1000
     55 H55        -7.7262   -1.4361   60.8004 H       1  ZINC000864730443    0.0500
     56 H56       -10.0849   -1.9931   60.9716 H       1  ZINC000864730443    0.0700
     57 H57       -10.8021   -3.0394   59.7226 H       1  ZINC000864730443    0.1000
@<TRIPOS>BOND
     1     1     2    1
     2     1    27    1
     3     1    28    1
     4     1    29    1
     5     2     3    1
     6     2     4    1
     7     2     5    1
     8     3    30    1
     9     3    31    1
    10     3    32    1
    11     4    33    1
    12     4    34    1
    13     4    35    1
    14     5     6    1
    15     6     7    2
    16     6     8   am
    17     8     9    1
    18     8    36    1
    19     9    10    1
    20     9    37    1
    21     9    38    1
    22    10    26    1
    23    10    11    1
    24    10    22    1
    25    11    12    2
    26    11    13   am
    27    13    14    1
    28    13    39    1
    29    14    15    1
    30    14    40    1
    31    14    41    1
    32    15    16    1
    33    15    42    1
    34    15    43    1
    35    16    17    1
    36    16    21    1
    37    16    18    1
    38    18    19    1
    39    18    44    1
    40    18    45    1
    41    19    20    1
    42    19    46    1
    43    19    47    1
    44    20    21    1
    45    20    48    1
    46    20    49    1
    47    22    23    1
    48    22    50    1
    49    22    51    1
    50    23    24    1
    51    23    52    1
    52    23    53    1
    53    24    25    1
    54    24    54    1
    55    24    55    1
    56    25    26    1
    57    26    56    1
    58    26    57    1
@<TRIPOS>SUBSTRUCTURE
     1 ZINC000864730443        1 TEMP              0 ****  ****    0 ROOT


##########                                Name:    ZINC001513543414
##########                DOCK_Rotatable_Bonds:                   6
##########                         Heavy_Atoms:                  26
##########                    Molecular_Weight:             364.488
##########                DOCK_Rotatable_Bonds:                   6
##########                       Formal_Charge:         -0.00999974
##########                     HBond_Acceptors:                   7
##########                        HBond_Donors:                   0
##########                         Heavy_Atoms:                  26
##########                          Grid_Score:          -29.130369
##########                     Grid_vdw_energy:          -29.338753
##########                      Grid_es_energy:            0.208384
##########           Internal_energy_repulsive:           17.581381

@<TRIPOS>MOLECULE
ZINC001513543414
 58 61 1 0 0
SMALL
USER_CHARGES


@<TRIPOS>ATOM
      1 C1        -16.2366    0.0261   53.5132 C.3     1  ZINC001513543414   -0.1500
      2 C2        -15.3353    1.2589   53.6065 C.3     1  ZINC001513543414   -0.1200
      3 C3        -14.0485    1.0109   52.8170 C.3     1  ZINC001513543414    0.1100
      4 C4        -14.3861    0.7149   51.3544 C.3     1  ZINC001513543414   -0.1500
      5 C5        -13.1330    2.2508   52.9045 C.3     1  ZINC001513543414   -0.1500
      6 C6        -11.7240    1.6115   53.0391 C.3     1  ZINC001513543414   -0.1500
      7 C7        -12.0544    0.3428   53.8648 C.3     1  ZINC001513543414    0.0700
      8 H8        -12.1110    0.5861   54.9258 H       1  ZINC001513543414    0.0800
      9 C9        -10.9979   -0.7375   53.6242 C.3     1  ZINC001513543414    0.1100
     10 N10        -9.8040   -0.4384   54.4188 N.pl3   1  ZINC001513543414   -0.4600
     11 C11        -9.6073   -0.7049   55.7455 C.2     1  ZINC001513543414    0.1900
     12 C12       -10.5873   -1.3690   56.6780 C.3     1  ZINC001513543414    0.1800
     13 H13       -11.5679   -0.9012   56.5909 H       1  ZINC001513543414    0.1000
     14 C14       -10.6843   -2.8837   56.3665 C.3     1  ZINC001513543414   -0.1500
     15 C15       -11.1616   -3.4366   57.7371 C.3     1  ZINC001513543414   -0.1500
     16 C16       -10.4513   -2.4967   58.7348 C.3     1  ZINC001513543414    0.0500
     17 O17       -10.1167   -1.2920   58.0330 O.3     1  ZINC001513543414   -0.3500
     18 N18        -8.4150   -0.2791   56.0537 N.2     1  ZINC001513543414   -0.2600
     19 N19        -7.8496    0.2344   55.0201 N.2     1  ZINC001513543414   -0.3100
     20 C20        -8.6553    0.1584   53.9872 C.2     1  ZINC001513543414    0.3400
     21 N21        -8.3928    0.6075   52.7027 N.3     1  ZINC001513543414   -0.4500
     22 C22        -7.5699   -0.3692   51.9579 C.3     1  ZINC001513543414    0.0500
     23 C23        -6.6739    0.4920   51.0332 C.3     1  ZINC001513543414   -0.1500
     24 C24        -6.3664    1.7113   51.9419 C.3     1  ZINC001513543414    0.0700
     25 H25        -5.5402    1.4898   52.6176 H       1  ZINC001513543414    0.0800
     26 O26        -6.0765    2.8680   51.1544 O.3     1  ZINC001513543414   -0.3800
     27 C27        -4.9363    2.7224   50.3055 C.3     1  ZINC001513543414    0.0300
     28 C28        -7.6803    1.8980   52.7295 C.3     1  ZINC001513543414    0.0600
     29 O29       -13.3356   -0.0944   53.3844 O.3     1  ZINC001513543414   -0.3600
     30 H30       -17.1534    0.2029   54.0756 H       1  ZINC001513543414    0.0500
     31 H31       -16.4825   -0.1659   52.4688 H       1  ZINC001513543414    0.0500
     32 H32       -15.7161   -0.8368   53.9285 H       1  ZINC001513543414    0.0600
     33 H33       -15.8557    2.1219   53.1912 H       1  ZINC001513543414    0.0700
     34 H34       -15.0895    1.4510   54.6509 H       1  ZINC001513543414    0.0600
     35 H35       -14.9033    1.5706   50.9205 H       1  ZINC001513543414    0.0700
     36 H36       -13.4665    0.5268   50.8001 H       1  ZINC001513543414    0.0600
     37 H37       -15.0288   -0.1637   51.3005 H       1  ZINC001513543414    0.0700
     38 H38       -13.2023    2.8492   51.9961 H       1  ZINC001513543414    0.0900
     39 H39       -13.3731    2.8490   53.7837 H       1  ZINC001513543414    0.0800
     40 H40       -11.3167    1.3496   52.0625 H       1  ZINC001513543414    0.0800
     41 H41       -11.0449    2.2683   53.5826 H       1  ZINC001513543414    0.0900
     42 H42       -11.3969   -1.7080   53.9191 H       1  ZINC001513543414    0.1000
     43 H43       -10.7345   -0.7589   52.5667 H       1  ZINC001513543414    0.1100
     44 H44       -11.4206   -3.0780   55.5865 H       1  ZINC001513543414    0.0900
     45 H45        -9.7108   -3.2922   56.0956 H       1  ZINC001513543414    0.0900
     46 H46       -12.2445   -3.3561   57.8320 H       1  ZINC001513543414    0.0800
     47 H47       -10.8346   -4.4672   57.8748 H       1  ZINC001513543414    0.0900
     48 H48       -11.1189   -2.2661   59.5649 H       1  ZINC001513543414    0.0700
     49 H49        -9.5445   -2.9719   59.1089 H       1  ZINC001513543414    0.0700
     50 H50        -6.9566   -0.9514   52.6457 H       1  ZINC001513543414    0.0600
     51 H51        -8.2055   -1.0270   51.3650 H       1  ZINC001513543414    0.0900
     52 H52        -5.7592   -0.0395   50.7703 H       1  ZINC001513543414    0.0800
     53 H53        -7.2163    0.7986   50.1389 H       1  ZINC001513543414    0.0900
     54 H54        -4.7833    3.6425   49.7414 H       1  ZINC001513543414    0.0900
     55 H55        -4.0548    2.5177   50.9130 H       1  ZINC001513543414    0.0400
     56 H56        -5.1011    1.8957   49.6144 H       1  ZINC001513543414    0.0400
     57 H57        -8.2898    2.6681   52.2565 H       1  ZINC001513543414    0.1000
     58 H58        -7.4586    2.1780   53.7594 H       1  ZINC001513543414    0.0900
@<TRIPOS>BOND
     1     1     2    1
     2     1    30    1
     3     1    31    1
     4     1    32    1
     5     2     3    1
     6     2    33    1
     7     2    34    1
     8     3    29    1
     9     3     4    1
    10     3     5    1
    11     4    35    1
    12     4    36    1
    13     4    37    1
    14     5     6    1
    15     5    38    1
    16     5    39    1
    17     6     7    1
    18     6    40    1
    19     6    41    1
    20     7     8    1
    21     7     9    1
    22     7    29    1
    23     9    10    1
    24     9    42    1
    25     9    43    1
    26    10    20    1
    27    10    11    1
    28    11    12    1
    29    11    18    2
    30    12    13    1
    31    12    17    1
    32    12    14    1
    33    14    15    1
    34    14    44    1
    35    14    45    1
    36    15    16    1
    37    15    46    1
    38    15    47    1
    39    16    17    1
    40    16    48    1
    41    16    49    1
    42    18    19    1
    43    19    20    2
    44    20    21    1
    45    21    28    1
    46    21    22    1
    47    22    23    1
    48    22    50    1
    49    22    51    1
    50    23    24    1
    51    23    52    1
    52    23    53    1
    53    24    25    1
    54    24    26    1
    55    24    28    1
    56    26    27    1
    57    27    54    1
    58    27    55    1
    59    27    56    1
    60    28    57    1
    61    28    58    1
@<TRIPOS>SUBSTRUCTURE
     1 ZINC001513543414        1 TEMP              0 ****  ****    0 ROOT


##########                                Name:    ZINC000174621331
##########                DOCK_Rotatable_Bonds:                   8
##########                         Heavy_Atoms:                  25
##########                    Molecular_Weight:             366.438
##########                DOCK_Rotatable_Bonds:                   8
##########                       Formal_Charge:        -5.96046e-08
##########                     HBond_Acceptors:                   8
##########                        HBond_Donors:                   3
##########                         Heavy_Atoms:                  25
##########                          Grid_Score:          -29.090597
##########                     Grid_vdw_energy:          -27.207756
##########                      Grid_es_energy:           -1.882841
##########           Internal_energy_repulsive:           14.961067

@<TRIPOS>MOLECULE
ZINC000174621331
 47 48 1 0 0
SMALL
USER_CHARGES


@<TRIPOS>ATOM
      1 C1        -11.1380   -2.8161   59.5360 C.3     1  ZINC000174621331    0.0300
      2 O2         -9.9468   -2.8392   60.3252 O.3     1  ZINC000174621331   -0.3800
      3 C3         -8.7412   -2.8352   59.5580 C.3     1  ZINC000174621331    0.0500
      4 C4         -8.2784   -1.3929   59.3428 C.3     1  ZINC000174621331    0.2400
      5 H5         -7.1899   -1.3640   59.2934 H       1  ZINC000174621331    0.1300
      6 N6         -8.8379   -0.8824   58.0887 N.am    1  ZINC000174621331   -0.7200
      7 C7         -8.2657    0.1727   57.4757 C.2     1  ZINC000174621331    0.5600
      8 O8         -7.2863    0.7016   57.9641 O.2     1  ZINC000174621331   -0.5300
      9 C9         -8.8291    0.6867   56.2092 C.ar    1  ZINC000174621331   -0.1600
     10 C10       -10.1379    1.1695   56.1694 C.ar    1  ZINC000174621331   -0.0200
     11 C11       -10.6576    1.6483   54.9842 C.ar    1  ZINC000174621331   -0.1100
     12 C12       -12.0707    2.1700   54.9393 C.3     1  ZINC000174621331   -0.1200
     13 C13        -9.8841    1.6509   53.8373 C.ar    1  ZINC000174621331    0.0400
     14 C14       -10.4581    2.1758   52.5465 C.3     1  ZINC000174621331   -0.1600
     15 C15        -8.5855    1.1740   53.8701 C.ar    1  ZINC000174621331   -0.6800
     16 S16        -7.6087    1.1823   52.4036 S.o2    1  ZINC000174621331    2.7000
     17 N17        -6.0296    0.9935   52.8653 N.am    1  ZINC000174621331   -1.2500
     18 O18        -7.9588    0.0096   51.6816 O.2     1  ZINC000174621331   -0.9500
     19 O19        -7.7139    2.4906   51.8590 O.2     1  ZINC000174621331   -0.9600
     20 C20        -8.0525    0.6966   55.0493 C.ar    1  ZINC000174621331    0.0400
     21 C21        -8.7521   -0.5370   60.4892 C.2     1  ZINC000174621331   -0.0200
     22 C22        -9.8444    0.2481   60.4858 C.2     1  ZINC000174621331   -0.1900
     23 C23        -9.9093    0.8651   61.7562 C.2     1  ZINC000174621331   -0.2100
     24 C24        -8.8528    0.4200   62.4600 C.2     1  ZINC000174621331    0.0000
     25 C25        -8.5103    0.8076   63.8755 C.3     1  ZINC000174621331   -0.0800
     26 O26        -8.1588   -0.4335   61.6896 O.3     1  ZINC000174621331   -0.1600
     27 H27       -11.1501   -1.9151   58.9226 H       1  ZINC000174621331    0.0400
     28 H28       -11.1640   -3.6948   58.8915 H       1  ZINC000174621331    0.0400
     29 H29       -12.0085   -2.8208   60.1920 H       1  ZINC000174621331    0.0900
     30 H30        -7.9689   -3.3887   60.0920 H       1  ZINC000174621331    0.0700
     31 H31        -8.9237   -3.3062   58.5920 H       1  ZINC000174621331    0.0700
     32 H32        -9.6202   -1.3038   57.6996 H       1  ZINC000174621331    0.4100
     33 H33       -10.7428    1.1680   57.0641 H       1  ZINC000174621331    0.1400
     34 H34       -12.0711    3.2375   55.1597 H       1  ZINC000174621331    0.0800
     35 H35       -12.4879    2.0039   53.9460 H       1  ZINC000174621331    0.0800
     36 H36       -12.6752    1.6460   55.6796 H       1  ZINC000174621331    0.0700
     37 H37       -10.2563    3.2440   52.4670 H       1  ZINC000174621331    0.1100
     38 H38        -9.9984    1.6555   51.7063 H       1  ZINC000174621331    0.0700
     39 H39       -11.5350    2.0075   52.5328 H       1  ZINC000174621331    0.0900
     40 H40        -5.3280    0.9709   52.1959 H       1  ZINC000174621331    0.4200
     41 H41        -5.8064    0.9055   53.8051 H       1  ZINC000174621331    0.4200
     42 H42        -7.0386    0.3251   55.0737 H       1  ZINC000174621331    0.1600
     43 H43       -10.5382    0.3820   59.6691 H       1  ZINC000174621331    0.1500
     44 H44       -10.6623    1.5606   62.0963 H       1  ZINC000174621331    0.1500
     45 H45        -8.9919    0.1173   64.5679 H       1  ZINC000174621331    0.0800
     46 H46        -7.4299    0.7650   64.0125 H       1  ZINC000174621331    0.0800
     47 H47        -8.8614    1.8211   64.0698 H       1  ZINC000174621331    0.0900
@<TRIPOS>BOND
     1     1     2    1
     2     1    27    1
     3     1    28    1
     4     1    29    1
     5     2     3    1
     6     3     4    1
     7     3    30    1
     8     3    31    1
     9     4     5    1
    10     4     6    1
    11     4    21    1
    12     6     7   am
    13     6    32    1
    14     7     8    2
    15     7     9    1
    16     9    20   ar
    17     9    10   ar
    18    10    11   ar
    19    10    33    1
    20    11    12    1
    21    11    13   ar
    22    12    34    1
    23    12    35    1
    24    12    36    1
    25    13    14    1
    26    13    15   ar
    27    14    37    1
    28    14    38    1
    29    14    39    1
    30    15    16    1
    31    15    20   ar
    32    16    17   am
    33    16    18    2
    34    16    19    2
    35    17    40    1
    36    17    41    1
    37    20    42    1
    38    21    26    1
    39    21    22    2
    40    22    23    1
    41    22    43    1
    42    23    24    2
    43    23    44    1
    44    24    25    1
    45    24    26    1
    46    25    45    1
    47    25    46    1
    48    25    47    1
@<TRIPOS>SUBSTRUCTURE
     1 ZINC000174621331        1 TEMP              0 ****  ****    0 ROOT


##########                                Name:    ZINC001023407238
##########                DOCK_Rotatable_Bonds:                   7
##########                         Heavy_Atoms:                  25
##########                    Molecular_Weight:             349.387
##########                DOCK_Rotatable_Bonds:                   7
##########                       Formal_Charge:          -0.0300008
##########                     HBond_Acceptors:                   8
##########                        HBond_Donors:                   2
##########                         Heavy_Atoms:                  25
##########                          Grid_Score:          -29.078287
##########                     Grid_vdw_energy:          -27.927092
##########                      Grid_es_energy:           -1.151196
##########           Internal_energy_repulsive:            7.325214

@<TRIPOS>MOLECULE
ZINC001023407238
 48 50 1 0 0
SMALL
USER_CHARGES


@<TRIPOS>ATOM
      1 C1        -11.1387    2.7982   51.9342 C.3     1  ZINC001023407238   -0.0900
      2 C2         -9.7492    2.3285   51.5882 C.2     1  ZINC001023407238   -0.1100
      3 C3         -9.2187    1.0818   51.8430 C.2     1  ZINC001023407238   -0.0500
      4 C4         -9.9050   -0.0343   52.5025 C.2     1  ZINC001023407238    0.6100
      5 O5        -10.4672   -0.8825   51.8351 O.2     1  ZINC001023407238   -0.5100
      6 N6         -9.9130   -0.1202   53.8474 N.am    1  ZINC001023407238   -0.6100
      7 C7        -10.5595   -1.1805   54.6345 C.3     1  ZINC001023407238    0.0800
      8 C8        -10.2834   -0.8795   56.1227 C.3     1  ZINC001023407238    0.0900
      9 H9        -11.1200   -0.3420   56.5691 H       1  ZINC001023407238    0.0800
     10 O10       -10.0183   -2.0856   56.8417 O.3     1  ZINC001023407238   -0.5500
     11 C11        -9.0202    0.0197   56.0668 C.3     1  ZINC001023407238    0.1400
     12 H12        -8.1157   -0.5822   55.9785 H       1  ZINC001023407238    0.1200
     13 N13        -8.9499    0.8997   57.2359 N.am    1  ZINC001023407238   -0.7200
     14 C14        -8.2134    0.5410   58.3062 C.2     1  ZINC001023407238    0.5200
     15 O15        -7.6099   -0.5111   58.3018 O.2     1  ZINC001023407238   -0.5300
     16 C16        -8.1397    1.4471   59.5081 C.3     1  ZINC001023407238   -0.1300
     17 C17        -9.0987    0.9413   60.5876 C.3     1  ZINC001023407238   -0.1100
     18 H18       -10.1135    0.8630   60.1972 H       1  ZINC001023407238    0.1100
     19 C19        -8.6216   -0.4143   61.1567 C.3     1  ZINC001023407238    0.0600
     20 O20        -8.9908   -0.3671   62.5667 O.3     1  ZINC001023407238   -0.3500
     21 C21        -8.9532    0.8989   63.0062 C.2     1  ZINC001023407238    0.4800
     22 O22        -8.8539    1.2294   64.1642 O.2     1  ZINC001023407238   -0.4600
     23 C23        -9.0570    1.8550   61.8327 C.3     1  ZINC001023407238   -0.1800
     24 C24        -9.2698    0.8301   54.7730 C.3     1  ZINC001023407238    0.1000
     25 N25        -7.9277    1.0749   51.3653 N.pl3   1  ZINC001023407238   -0.4200
     26 C26        -6.9987   -0.0561   51.4299 C.3     1  ZINC001023407238    0.0700
     27 C27        -7.6591    2.2886   50.8253 C.2     1  ZINC001023407238    0.0100
     28 C28        -8.7571    3.0731   50.9428 C.2     1  ZINC001023407238   -0.2000
     29 H29       -11.8137    2.5762   51.1075 H       1  ZINC001023407238    0.0600
     30 H30       -11.4828    2.2847   52.8320 H       1  ZINC001023407238    0.0600
     31 H31       -11.1248    3.8733   52.1132 H       1  ZINC001023407238    0.0700
     32 H32       -11.6335   -1.1775   54.4488 H       1  ZINC001023407238    0.0800
     33 H33       -10.1377   -2.1496   54.3679 H       1  ZINC001023407238    0.0800
     34 H34        -9.3295   -2.6366   56.4453 H       1  ZINC001023407238    0.3900
     35 H35        -9.4335    1.7406   57.2399 H       1  ZINC001023407238    0.4100
     36 H36        -7.1221    1.4505   59.8987 H       1  ZINC001023407238    0.1000
     37 H37        -8.4207    2.4594   59.2178 H       1  ZINC001023407238    0.1100
     38 H38        -9.1319   -1.2377   60.6569 H       1  ZINC001023407238    0.1200
     39 H39        -7.5415   -0.5134   61.0491 H       1  ZINC001023407238    0.0800
     40 H40        -8.1830    2.5051   61.7945 H       1  ZINC001023407238    0.1100
     41 H41        -9.9689    2.4477   61.9058 H       1  ZINC001023407238    0.1200
     42 H42        -8.3257    1.1865   54.3605 H       1  ZINC001023407238    0.0900
     43 H43        -9.9377    1.6679   54.9729 H       1  ZINC001023407238    0.0800
     44 H44        -7.0459   -0.6187   50.4975 H       1  ZINC001023407238    0.0800
     45 H45        -5.9847    0.3148   51.5796 H       1  ZINC001023407238    0.0900
     46 H46        -7.2744   -0.7056   52.2606 H       1  ZINC001023407238    0.0800
     47 H47        -6.7237    2.5813   50.3718 H       1  ZINC001023407238    0.1700
     48 H48        -8.8478    4.0948   50.6045 H       1  ZINC001023407238    0.1400
@<TRIPOS>BOND
     1     1     2    1
     2     1    29    1
     3     1    30    1
     4     1    31    1
     5     2    28    1
     6     2     3    2
     7     3     4    1
     8     3    25    1
     9     4     5    2
    10     4     6   am
    11     6    24    1
    12     6     7    1
    13     7     8    1
    14     7    32    1
    15     7    33    1
    16     8     9    1
    17     8    10    1
    18     8    11    1
    19    10    34    1
    20    11    12    1
    21    11    13    1
    22    11    24    1
    23    13    14   am
    24    13    35    1
    25    14    15    2
    26    14    16    1
    27    16    17    1
    28    16    36    1
    29    16    37    1
    30    17    18    1
    31    17    23    1
    32    17    19    1
    33    19    20    1
    34    19    38    1
    35    19    39    1
    36    20    21    1
    37    21    22    2
    38    21    23    1
    39    23    40    1
    40    23    41    1
    41    24    42    1
    42    24    43    1
    43    25    26    1
    44    25    27    1
    45    26    44    1
    46    26    45    1
    47    26    46    1
    48    27    28    2
    49    27    47    1
    50    28    48    1
@<TRIPOS>SUBSTRUCTURE
     1 ZINC001023407238        1 TEMP              0 ****  ****    0 ROOT


##########                                Name:    ZINC000119180466
##########                DOCK_Rotatable_Bonds:                  10
##########                         Heavy_Atoms:                  23
##########                    Molecular_Weight:             350.405
##########                DOCK_Rotatable_Bonds:                  10
##########                       Formal_Charge:           0.0299997
##########                     HBond_Acceptors:                   8
##########                        HBond_Donors:                   3
##########                         Heavy_Atoms:                  23
##########                          Grid_Score:          -29.049408
##########                     Grid_vdw_energy:          -29.155754
##########                      Grid_es_energy:            0.106347
##########           Internal_energy_repulsive:           14.815629

@<TRIPOS>MOLECULE
ZINC000119180466
 44 44 1 0 0
SMALL
USER_CHARGES


@<TRIPOS>ATOM
      1 C1         -8.0058    1.1142   58.9559 C.3     1  ZINC000119180466   -0.1300
      2 S2         -9.6053    0.4699   59.5191 S.3     1  ZINC000119180466   -0.2200
      3 C3         -9.3718   -1.3273   59.4405 C.3     1  ZINC000119180466   -0.0700
      4 H4         -9.8730   -1.7962   60.2873 H       1  ZINC000119180466    0.1100
      5 C5         -7.8771   -1.6501   59.4901 C.3     1  ZINC000119180466    0.0800
      6 O6         -7.6980   -3.0652   59.5771 O.3     1  ZINC000119180466   -0.5600
      7 C7         -9.9661   -1.8623   58.1361 C.3     1  ZINC000119180466    0.1900
      8 H8         -9.3595   -2.6925   57.7741 H       1  ZINC000119180466    0.1000
      9 C9        -11.3953   -2.3468   58.3878 C.3     1  ZINC000119180466   -0.1700
     10 N10        -9.9817   -0.7950   57.1328 N.am    1  ZINC000119180466   -0.7200
     11 C11        -9.9562   -1.1029   55.8209 C.2     1  ZINC000119180466    0.7100
     12 O12        -9.9219   -2.2666   55.4701 O.2     1  ZINC000119180466   -0.6000
     13 N13        -9.9690   -0.1209   54.8978 N.am    1  ZINC000119180466   -0.7400
     14 C14        -9.9432   -0.4556   53.4718 C.3     1  ZINC000119180466    0.2000
     15 H15        -9.8049   -1.5303   53.3533 H       1  ZINC000119180466    0.1000
     16 C16       -11.2656   -0.0373   52.8258 C.3     1  ZINC000119180466   -0.1600
     17 C17        -8.8055    0.2739   52.8052 C.ar    1  ZINC000119180466   -0.0600
     18 C18        -7.7291   -0.4344   52.3045 C.ar    1  ZINC000119180466   -0.1100
     19 C19        -6.6854    0.2349   51.6931 C.ar    1  ZINC000119180466   -0.0600
     20 C20        -6.7184    1.6124   51.5820 C.ar    1  ZINC000119180466   -0.1800
     21 C21        -5.5805    2.3420   50.9160 C.3     1  ZINC000119180466    0.5100
     22 F22        -4.6945    2.8133   51.8909 F       1  ZINC000119180466   -0.1800
     23 F23        -4.9060    1.4686   50.0561 F       1  ZINC000119180466   -0.1800
     24 F24        -6.0843    3.4217   50.1828 F       1  ZINC000119180466   -0.1800
     25 C25        -7.7953    2.3205   52.0815 C.ar    1  ZINC000119180466   -0.0600
     26 C26        -8.8408    1.6510   52.6895 C.ar    1  ZINC000119180466   -0.1100
     27 H27        -7.8080    0.7612   57.9438 H       1  ZINC000119180466    0.0800
     28 H28        -8.0304    2.2039   58.9624 H       1  ZINC000119180466    0.1000
     29 H29        -7.2179    0.7646   59.6231 H       1  ZINC000119180466    0.0800
     30 H30        -7.3948   -1.2777   58.5863 H       1  ZINC000119180466    0.0500
     31 H31        -7.4311   -1.1731   60.3628 H       1  ZINC000119180466    0.0600
     32 H32        -8.0618   -3.4588   60.3819 H       1  ZINC000119180466    0.3800
     33 H33       -12.0019   -1.5166   58.7499 H       1  ZINC000119180466    0.0700
     34 H34       -11.8187   -2.7279   57.4584 H       1  ZINC000119180466    0.0700
     35 H35       -11.3837   -3.1409   59.1343 H       1  ZINC000119180466    0.0700
     36 H36       -10.0104    0.1333   57.4126 H       1  ZINC000119180466    0.4100
     37 H37        -9.9953    0.8074   55.1777 H       1  ZINC000119180466    0.4000
     38 H38       -11.2463   -0.2864   51.7648 H       1  ZINC000119180466    0.0700
     39 H39       -12.0884   -0.5650   53.3080 H       1  ZINC000119180466    0.0700
     40 H40       -11.4039    1.0373   52.9443 H       1  ZINC000119180466    0.0600
     41 H41        -7.7034   -1.5106   52.3914 H       1  ZINC000119180466    0.1300
     42 H42        -5.8442   -0.3185   51.3026 H       1  ZINC000119180466    0.1400
     43 H43        -7.8213    3.3967   51.9944 H       1  ZINC000119180466    0.1400
     44 H44        -9.6823    2.2042   53.0798 H       1  ZINC000119180466    0.1400
@<TRIPOS>BOND
     1     1     2    1
     2     1    27    1
     3     1    28    1
     4     1    29    1
     5     2     3    1
     6     3     4    1
     7     3     5    1
     8     3     7    1
     9     5     6    1
    10     5    30    1
    11     5    31    1
    12     6    32    1
    13     7     8    1
    14     7     9    1
    15     7    10    1
    16     9    33    1
    17     9    34    1
    18     9    35    1
    19    10    11   am
    20    10    36    1
    21    11    12    2
    22    11    13   am
    23    13    14    1
    24    13    37    1
    25    14    15    1
    26    14    16    1
    27    14    17    1
    28    16    38    1
    29    16    39    1
    30    16    40    1
    31    17    26   ar
    32    17    18   ar
    33    18    19   ar
    34    18    41    1
    35    19    20   ar
    36    19    42    1
    37    20    21    1
    38    20    25   ar
    39    21    22    1
    40    21    23    1
    41    21    24    1
    42    25    26   ar
    43    25    43    1
    44    26    44    1
@<TRIPOS>SUBSTRUCTURE
     1 ZINC000119180466        1 TEMP              0 ****  ****    0 ROOT


##########                                Name:    ZINC001757264545
##########                DOCK_Rotatable_Bonds:                  11
##########                         Heavy_Atoms:                  25
##########                    Molecular_Weight:             344.497
##########                DOCK_Rotatable_Bonds:                  11
##########                       Formal_Charge:          0.00999946
##########                     HBond_Acceptors:                   4
##########                        HBond_Donors:                   2
##########                         Heavy_Atoms:                  25
##########                          Grid_Score:          -29.046738
##########                     Grid_vdw_energy:          -29.319683
##########                      Grid_es_energy:            0.272945
##########           Internal_energy_repulsive:           12.928179

@<TRIPOS>MOLECULE
ZINC001757264545
 57 57 1 0 0
SMALL
USER_CHARGES


@<TRIPOS>ATOM
      1 C1         -7.7694   -0.1051   64.9156 C.1     1  ZINC001757264545   -0.2100
      2 C2         -8.1034    0.3769   63.8985 C.1     1  ZINC001757264545   -0.1900
      3 C3         -8.5222    0.9812   62.6233 C.3     1  ZINC001757264545   -0.0100
      4 C4         -8.7517   -0.1215   61.5875 C.3     1  ZINC001757264545   -0.1200
      5 C5         -9.4478    0.4691   60.3597 C.3     1  ZINC001757264545   -0.1200
      6 C6         -8.5607    1.5518   59.7420 C.3     1  ZINC001757264545   -0.1000
      7 C7         -9.1926    2.0474   58.4398 C.3     1  ZINC001757264545   -0.1400
      8 C8         -8.6794    1.2235   57.2870 C.2     1  ZINC001757264545    0.5100
      9 O9         -8.0336    0.2191   57.4996 O.2     1  ZINC001757264545   -0.5400
     10 N10        -8.9380    1.6027   56.0198 N.am    1  ZINC001757264545   -0.7300
     11 C11        -8.4407    0.8008   54.8993 C.3     1  ZINC001757264545    0.1400
     12 H12        -7.8494   -0.0311   55.2819 H       1  ZINC001757264545    0.1000
     13 C13        -7.5677    1.6735   53.9953 C.3     1  ZINC001757264545   -0.1300
     14 C14        -7.0482    0.8360   52.8250 C.3     1  ZINC001757264545   -0.1200
     15 C15        -8.2317    0.2933   52.0213 C.3     1  ZINC001757264545   -0.1200
     16 C16        -9.1046   -0.5795   52.9252 C.3     1  ZINC001757264545   -0.1300
     17 C17        -9.6241    0.2581   54.0955 C.3     1  ZINC001757264545    0.1400
     18 H18       -10.2153    1.0900   53.7128 H       1  ZINC001757264545    0.1000
     19 N19       -10.4600   -0.5776   54.9610 N.am    1  ZINC001757264545   -0.7200
     20 C20       -11.7986   -0.5828   54.8039 C.2     1  ZINC001757264545    0.6400
     21 O21       -12.3124    0.1051   53.9427 O.2     1  ZINC001757264545   -0.5200
     22 C22       -12.6158   -1.3984   55.6511 C.1     1  ZINC001757264545   -0.2300
     23 C23       -13.2857   -2.0670   56.3456 C.1     1  ZINC001757264545   -0.0500
     24 C24       -14.1258   -2.9054   57.2164 C.3     1  ZINC001757264545    0.0300
     25 C25       -13.8625   -4.3813   56.9116 C.3     1  ZINC001757264545   -0.1400
     26 C26       -13.7874   -2.6187   58.6807 C.3     1  ZINC001757264545   -0.1400
     27 C27       -15.6006   -2.5873   56.9620 C.3     1  ZINC001757264545   -0.1400
     28 H28        -7.4707   -0.5361   65.8252 H       1  ZINC001757264545    0.2200
     29 H29        -7.7440    1.6567   62.2683 H       1  ZINC001757264545    0.0900
     30 H30        -9.4472    1.5384   62.7717 H       1  ZINC001757264545    0.0900
     31 H31        -9.3781   -0.9016   62.0201 H       1  ZINC001757264545    0.0700
     32 H32        -7.7930   -0.5474   61.2918 H       1  ZINC001757264545    0.0700
     33 H33       -10.4008    0.9065   60.6576 H       1  ZINC001757264545    0.0700
     34 H34        -9.6229   -0.3188   59.6272 H       1  ZINC001757264545    0.0700
     35 H35        -7.5744    1.1377   59.5327 H       1  ZINC001757264545    0.0700
     36 H36        -8.4647    2.3843   60.4391 H       1  ZINC001757264545    0.0700
     37 H37        -8.9302    3.0937   58.2836 H       1  ZINC001757264545    0.0900
     38 H38       -10.2765    1.9500   58.5018 H       1  ZINC001757264545    0.0900
     39 H39        -9.4535    2.4066   55.8498 H       1  ZINC001757264545    0.4000
     40 H40        -8.1589    2.5054   53.6126 H       1  ZINC001757264545    0.0700
     41 H41        -6.7245    2.0601   54.5679 H       1  ZINC001757264545    0.0800
     42 H42        -6.4263    1.4578   52.1810 H       1  ZINC001757264545    0.0700
     43 H43        -6.4570    0.0041   53.2077 H       1  ZINC001757264545    0.0700
     44 H44        -7.8616   -0.3033   51.1876 H       1  ZINC001757264545    0.0700
     45 H45        -8.8229    1.1252   51.6386 H       1  ZINC001757264545    0.0700
     46 H46        -8.5134   -1.4114   53.3080 H       1  ZINC001757264545    0.0700
     47 H47        -9.9477   -0.9660   52.3526 H       1  ZINC001757264545    0.0800
     48 H48       -10.0501   -1.1272   55.6472 H       1  ZINC001757264545    0.4000
     49 H49       -12.8118   -4.6080   57.0928 H       1  ZINC001757264545    0.0600
     50 H50       -14.4845   -5.0021   57.5564 H       1  ZINC001757264545    0.0700
     51 H51       -14.1035   -4.5855   55.8683 H       1  ZINC001757264545    0.0600
     52 H52       -13.9750   -1.5673   58.8979 H       1  ZINC001757264545    0.0600
     53 H53       -14.4095   -3.2395   59.3256 H       1  ZINC001757264545    0.0700
     54 H54       -12.7367   -2.8454   58.8619 H       1  ZINC001757264545    0.0600
     55 H55       -15.8416   -2.7914   55.9187 H       1  ZINC001757264545    0.0600
     56 H56       -16.2226   -3.2080   57.6069 H       1  ZINC001757264545    0.0700
     57 H57       -15.7881   -1.5357   57.1792 H       1  ZINC001757264545    0.0600
@<TRIPOS>BOND
     1     1     2    3
     2     1    28    1
     3     2     3    1
     4     3     4    1
     5     3    29    1
     6     3    30    1
     7     4     5    1
     8     4    31    1
     9     4    32    1
    10     5     6    1
    11     5    33    1
    12     5    34    1
    13     6     7    1
    14     6    35    1
    15     6    36    1
    16     7     8    1
    17     7    37    1
    18     7    38    1
    19     8     9    2
    20     8    10   am
    21    10    11    1
    22    10    39    1
    23    11    12    1
    24    11    17    1
    25    11    13    1
    26    13    14    1
    27    13    40    1
    28    13    41    1
    29    14    15    1
    30    14    42    1
    31    14    43    1
    32    15    16    1
    33    15    44    1
    34    15    45    1
    35    16    17    1
    36    16    46    1
    37    16    47    1
    38    17    18    1
    39    17    19    1
    40    19    20   am
    41    19    48    1
    42    20    21    2
    43    20    22    1
    44    22    23    3
    45    23    24    1
    46    24    25    1
    47    24    26    1
    48    24    27    1
    49    25    49    1
    50    25    50    1
    51    25    51    1
    52    26    52    1
    53    26    53    1
    54    26    54    1
    55    27    55    1
    56    27    56    1
    57    27    57    1
@<TRIPOS>SUBSTRUCTURE
     1 ZINC001757264545        1 TEMP              0 ****  ****    0 ROOT


##########                                Name:    ZINC000151850193
##########                DOCK_Rotatable_Bonds:                  11
##########                         Heavy_Atoms:                  23
##########                    Molecular_Weight:             328.452
##########                DOCK_Rotatable_Bonds:                  11
##########                       Formal_Charge:            0.039999
##########                     HBond_Acceptors:                   6
##########                        HBond_Donors:                   2
##########                         Heavy_Atoms:                  23
##########                          Grid_Score:          -28.985111
##########                     Grid_vdw_energy:          -28.539858
##########                      Grid_es_energy:           -0.445254
##########           Internal_energy_repulsive:           50.343315

@<TRIPOS>MOLECULE
ZINC000151850193
 55 55 1 0 0
SMALL
USER_CHARGES


@<TRIPOS>ATOM
      1 C1         -8.3556    0.9227   62.0380 C.3     1  ZINC000151850193   -0.1500
      2 C2         -8.3799   -0.3400   61.1744 C.3     1  ZINC000151850193   -0.1000
      3 C3         -9.4966   -0.2254   60.1348 C.3     1  ZINC000151850193   -0.0800
      4 C4         -9.3269    0.9826   59.2113 C.3     1  ZINC000151850193   -0.1000
      5 C5         -7.9862    0.8818   58.4809 C.3     1  ZINC000151850193   -0.1500
      6 C6         -9.7798   -1.5393   59.3876 C.3     1  ZINC000151850193    0.1400
      7 H7         -8.9257   -2.2157   59.3545 H       1  ZINC000151850193    0.1000
      8 N8        -10.4037   -1.3460   58.0763 N.am    1  ZINC000151850193   -0.7000
      9 C9        -10.7643   -2.4141   57.3375 C.2     1  ZINC000151850193    0.5200
     10 O10       -10.5707   -3.5352   57.7577 O.2     1  ZINC000151850193   -0.5300
     11 C11       -11.4076   -2.2153   55.9893 C.3     1  ZINC000151850193   -0.1500
     12 C12       -10.3280   -2.2070   54.9053 C.3     1  ZINC000151850193    0.1500
     13 N13        -9.5554   -0.9656   54.9949 N.am    1  ZINC000151850193   -0.7100
     14 C14        -8.9408   -0.4739   53.9008 C.2     1  ZINC000151850193    0.6500
     15 O15        -9.0263   -1.0611   52.8405 O.2     1  ZINC000151850193   -0.5600
     16 O16        -8.2320    0.6679   53.9829 O.3     1  ZINC000151850193   -0.3700
     17 C17        -7.7370    1.2273   52.7378 C.3     1  ZINC000151850193    0.1400
     18 C18        -8.9080    1.4555   51.7799 C.3     1  ZINC000151850193   -0.1800
     19 C19        -7.0409    2.5605   53.0188 C.3     1  ZINC000151850193   -0.1400
     20 C20        -6.7404    0.2556   52.1026 C.3     1  ZINC000151850193   -0.1800
     21 C21       -10.7824   -1.8677   60.5065 C.3     1  ZINC000151850193   -0.1700
     22 C22       -10.9085   -0.3517   60.7309 C.3     1  ZINC000151850193    0.0700
     23 H23       -10.9655   -0.0691   61.7822 H       1  ZINC000151850193    0.0800
     24 O24       -11.9246    0.2622   59.9355 O.3     1  ZINC000151850193   -0.3700
     25 C25       -13.1818    0.3973   60.6013 C.3     1  ZINC000151850193    0.0300
     26 H26        -8.1432    1.7882   61.4103 H       1  ZINC000151850193    0.0600
     27 H27        -9.3248    1.0522   62.5196 H       1  ZINC000151850193    0.0600
     28 H28        -7.5814    0.8273   62.7993 H       1  ZINC000151850193    0.0600
     29 H29        -7.4215   -0.4519   60.6673 H       1  ZINC000151850193    0.0700
     30 H30        -8.5601   -1.2093   61.8067 H       1  ZINC000151850193    0.0700
     31 H31       -10.1373    0.9995   58.4825 H       1  ZINC000151850193    0.0700
     32 H32        -9.3506    1.8980   59.8025 H       1  ZINC000151850193    0.0700
     33 H33        -7.1731    0.9382   59.2047 H       1  ZINC000151850193    0.0500
     34 H34        -7.9332   -0.0678   57.9482 H       1  ZINC000151850193    0.0500
     35 H35        -7.8972    1.7030   57.7697 H       1  ZINC000151850193    0.0500
     36 H36       -10.5575   -0.4494   57.7398 H       1  ZINC000151850193    0.4100
     37 H37       -12.1085   -3.0279   55.7979 H       1  ZINC000151850193    0.1000
     38 H38       -11.9413   -1.2649   55.9780 H       1  ZINC000151850193    0.1000
     39 H39        -9.6638   -3.0595   55.0475 H       1  ZINC000151850193    0.0800
     40 H40       -10.7980   -2.2724   53.9240 H       1  ZINC000151850193    0.0800
     41 H41        -9.4861   -0.4974   55.8417 H       1  ZINC000151850193    0.4100
     42 H42        -9.6180    2.1478   52.2325 H       1  ZINC000151850193    0.0600
     43 H43        -8.5364    1.8754   50.8453 H       1  ZINC000151850193    0.0700
     44 H44        -9.4040    0.5057   51.5797 H       1  ZINC000151850193    0.0900
     45 H45        -6.2066    2.3980   53.7013 H       1  ZINC000151850193    0.0700
     46 H46        -6.6692    2.9805   52.0842 H       1  ZINC000151850193    0.0800
     47 H47        -7.7508    3.2528   53.4714 H       1  ZINC000151850193    0.0700
     48 H48        -7.2363   -0.6941   51.9024 H       1  ZINC000151850193    0.0900
     49 H49        -6.3688    0.6756   51.1679 H       1  ZINC000151850193    0.0700
     50 H50        -5.9061    0.0931   52.7850 H       1  ZINC000151850193    0.0600
     51 H51       -11.7001   -2.3338   60.1476 H       1  ZINC000151850193    0.0800
     52 H52       -10.3384   -2.3983   61.3488 H       1  ZINC000151850193    0.1000
     53 H53       -13.5490   -0.5883   60.8876 H       1  ZINC000151850193    0.0400
     54 H54       -13.0565    1.0114   61.4931 H       1  ZINC000151850193    0.0400
     55 H55       -13.8988    0.8716   59.9312 H       1  ZINC000151850193    0.0900
@<TRIPOS>BOND
     1     1     2    1
     2     1    26    1
     3     1    27    1
     4     1    28    1
     5     2     3    1
     6     2    29    1
     7     2    30    1
     8     3    22    1
     9     3     4    1
    10     3     6    1
    11     4     5    1
    12     4    31    1
    13     4    32    1
    14     5    33    1
    15     5    34    1
    16     5    35    1
    17     6     7    1
    18     6     8    1
    19     6    21    1
    20     8     9   am
    21     8    36    1
    22     9    10    2
    23     9    11    1
    24    11    12    1
    25    11    37    1
    26    11    38    1
    27    12    13    1
    28    12    39    1
    29    12    40    1
    30    13    14   am
    31    13    41    1
    32    14    15    2
    33    14    16    1
    34    16    17    1
    35    17    18    1
    36    17    19    1
    37    17    20    1
    38    18    42    1
    39    18    43    1
    40    18    44    1
    41    19    45    1
    42    19    46    1
    43    19    47    1
    44    20    48    1
    45    20    49    1
    46    20    50    1
    47    21    22    1
    48    21    51    1
    49    21    52    1
    50    22    23    1
    51    22    24    1
    52    24    25    1
    53    25    53    1
    54    25    54    1
    55    25    55    1
@<TRIPOS>SUBSTRUCTURE
     1 ZINC000151850193        1 TEMP              0 ****  ****    0 ROOT


##########                                Name:    ZINC000888733009
##########                DOCK_Rotatable_Bonds:                   6
##########                         Heavy_Atoms:                  25
##########                    Molecular_Weight:             360.434
##########                DOCK_Rotatable_Bonds:                   6
##########                       Formal_Charge:        -1.02073e-06
##########                     HBond_Acceptors:                   7
##########                        HBond_Donors:                   2
##########                         Heavy_Atoms:                  25
##########                          Grid_Score:          -28.976545
##########                     Grid_vdw_energy:          -28.053593
##########                      Grid_es_energy:           -0.922953
##########           Internal_energy_repulsive:            3.619788

@<TRIPOS>MOLECULE
ZINC000888733009
 45 48 1 0 0
SMALL
USER_CHARGES


@<TRIPOS>ATOM
      1 C1         -6.0240    1.9991   50.0110 C.3     1  ZINC000888733009   -0.1500
      2 C2         -7.0414    2.2853   51.1174 C.3     1  ZINC000888733009    0.0700
      3 H3         -6.9263    3.3057   51.4828 H       1  ZINC000888733009    0.0700
      4 C4         -6.8729    1.2755   52.2780 C.3     1  ZINC000888733009   -0.1300
      5 C5         -8.3130    1.0056   52.7344 C.3     1  ZINC000888733009   -0.1100
      6 C6         -8.7072   -0.4641   52.8574 C.3     1  ZINC000888733009   -0.1300
      7 C7         -9.5274   -0.0495   54.0929 C.3     1  ZINC000888733009    0.1200
      8 N8         -9.4352   -1.0004   55.2035 N.am    1  ZINC000888733009   -0.7100
      9 C9        -10.3358   -0.9560   56.2052 C.2     1  ZINC000888733009    0.5900
     10 O10       -11.2267   -0.1269   56.1863 O.2     1  ZINC000888733009   -0.5600
     11 C11       -10.2425   -1.9064   57.3174 C.2     1  ZINC000888733009   -0.2400
     12 C12        -9.9989   -1.5348   58.6147 C.2     1  ZINC000888733009    0.0800
     13 N13        -9.8121   -0.2294   59.0383 N.am    1  ZINC000888733009   -0.6100
     14 C14        -8.6103    0.3622   58.8886 C.2     1  ZINC000888733009    0.6000
     15 O15        -7.6890   -0.2510   58.3825 O.2     1  ZINC000888733009   -0.4900
     16 C16        -8.4131    1.7444   59.3353 C.2     1  ZINC000888733009   -0.0900
     17 C17        -7.2832    2.4913   59.1591 C.2     1  ZINC000888733009   -0.1000
     18 C18        -7.5335    3.7446   59.7394 C.2     1  ZINC000888733009   -0.2300
     19 C19        -8.7891    3.7084   60.2380 C.2     1  ZINC000888733009    0.0100
     20 O20        -9.3178    2.5036   59.9875 O.3     1  ZINC000888733009   -0.1600
     21 S21        -9.9582   -2.8999   59.6344 S.3     1  ZINC000888733009    0.3000
     22 C22       -10.2734   -3.9999   58.3041 C.2     1  ZINC000888733009   -0.2800
     23 C23       -10.4035   -3.3357   57.1646 C.2     1  ZINC000888733009   -0.0900
     24 C24        -8.5755    1.1530   54.2309 C.3     1  ZINC000888733009   -0.1400
     25 C25        -9.1941    1.8595   51.8131 C.3     1  ZINC000888733009    0.0700
     26 O26        -8.3858    2.0738   50.6311 O.3     1  ZINC000888733009   -0.3700
     27 H27        -6.1730    2.7006   49.1902 H       1  ZINC000888733009    0.0600
     28 H28        -5.0150    2.1124   50.4073 H       1  ZINC000888733009    0.0700
     29 H29        -6.1594    0.9805   49.6475 H       1  ZINC000888733009    0.0600
     30 H30        -6.4050    0.3575   51.9226 H       1  ZINC000888733009    0.0800
     31 H31        -6.2903    1.7156   53.0873 H       1  ZINC000888733009    0.0800
     32 H32        -9.3165   -0.8245   52.0285 H       1  ZINC000888733009    0.0800
     33 H33        -7.8708   -1.1236   53.0884 H       1  ZINC000888733009    0.0900
     34 H34       -10.5548    0.2306   53.8603 H       1  ZINC000888733009    0.1200
     35 H35        -8.7260   -1.6619   55.2180 H       1  ZINC000888733009    0.4000
     36 H36       -10.5461    0.2590   59.4427 H       1  ZINC000888733009    0.4400
     37 H37        -6.3734    2.1782   58.6687 H       1  ZINC000888733009    0.1700
     38 H38        -6.8509    4.5806   59.7800 H       1  ZINC000888733009    0.1600
     39 H39        -9.2859    4.5191   60.7501 H       1  ZINC000888733009    0.2200
     40 H40       -10.3546   -5.0724   58.4015 H       1  ZINC000888733009    0.1700
     41 H41       -10.6015   -3.8140   56.2167 H       1  ZINC000888733009    0.1500
     42 H42        -7.7018    0.9507   54.8504 H       1  ZINC000888733009    0.0900
     43 H43        -9.0797    2.0820   54.4974 H       1  ZINC000888733009    0.0800
     44 H44       -10.1083    1.3239   51.5574 H       1  ZINC000888733009    0.0900
     45 H45        -9.4303    2.8117   52.2880 H       1  ZINC000888733009    0.0700
@<TRIPOS>BOND
     1     1     2    1
     2     1    27    1
     3     1    28    1
     4     1    29    1
     5     2     3    1
     6     2    26    1
     7     2     4    1
     8     4     5    1
     9     4    30    1
    10     4    31    1
    11     5    24    1
    12     5     6    1
    13     5    25    1
    14     6     7    1
    15     6    32    1
    16     6    33    1
    17     7     8    1
    18     7    24    1
    19     7    34    1
    20     8     9   am
    21     8    35    1
    22     9    10    2
    23     9    11    1
    24    11    23    1
    25    11    12    2
    26    12    13    1
    27    12    21    1
    28    13    14   am
    29    13    36    1
    30    14    15    2
    31    14    16    1
    32    16    20    1
    33    16    17    2
    34    17    18    1
    35    17    37    1
    36    18    19    2
    37    18    38    1
    38    19    20    1
    39    19    39    1
    40    21    22    1
    41    22    23    2
    42    22    40    1
    43    23    41    1
    44    24    42    1
    45    24    43    1
    46    25    26    1
    47    25    44    1
    48    25    45    1
@<TRIPOS>SUBSTRUCTURE
     1 ZINC000888733009        1 TEMP              0 ****  ****    0 ROOT


##########                                Name:    ZINC001191386213
##########                DOCK_Rotatable_Bonds:                   6
##########                         Heavy_Atoms:                  29
##########                    Molecular_Weight:             392.433
##########                DOCK_Rotatable_Bonds:                   6
##########                       Formal_Charge:               -0.02
##########                     HBond_Acceptors:                   7
##########                        HBond_Donors:                   2
##########                         Heavy_Atoms:                  29
##########                          Grid_Score:          -28.976189
##########                     Grid_vdw_energy:          -29.858929
##########                      Grid_es_energy:            0.882740
##########           Internal_energy_repulsive:          166.209976

@<TRIPOS>MOLECULE
ZINC001191386213
 50 53 1 0 0
SMALL
USER_CHARGES


@<TRIPOS>ATOM
      1 C1          1.5976    0.6339   48.5224 C.3     1  ZINC001191386213   -0.1700
      2 C2          0.6213    1.4704   49.3086 C.2     1  ZINC001191386213    0.5100
      3 O3          1.0244    2.3736   50.0106 O.2     1  ZINC001191386213   -0.5200
      4 N4         -0.6998    1.2150   49.2318 N.am    1  ZINC001191386213   -0.6800
      5 C5         -1.6064    1.9918   49.9618 C.ar    1  ZINC001191386213    0.1400
      6 C6         -1.1449    3.0260   50.7664 C.ar    1  ZINC001191386213   -0.1400
      7 C7         -2.0374    3.7956   51.4884 C.ar    1  ZINC001191386213   -0.1000
      8 C8         -3.3922    3.5404   51.4145 C.ar    1  ZINC001191386213   -0.1100
      9 C9         -3.8638    2.5046   50.6102 C.ar    1  ZINC001191386213    0.0100
     10 C10        -5.3204    2.2291   50.5297 C.2     1  ZINC001191386213    0.0700
     11 N11        -5.8810    1.1482   50.0297 N.2     1  ZINC001191386213   -0.2500
     12 N12        -7.1606    1.2195   50.1097 N.pl3   1  ZINC001191386213   -0.3800
     13 C13        -7.5246    2.4014   50.6913 C.2     1  ZINC001191386213   -0.0400
     14 C14        -8.8951    2.8643   50.9638 C.2     1  ZINC001191386213    0.6100
     15 O15        -9.3604    3.7931   50.3312 O.2     1  ZINC001191386213   -0.5100
     16 N16        -9.6344    2.2587   51.9142 N.am    1  ZINC001191386213   -0.6200
     17 C17       -11.0104    2.6174   52.2874 C.3     1  ZINC001191386213    0.0800
     18 C18       -11.4355    1.6735   53.4320 C.3     1  ZINC001191386213   -0.1200
     19 C19       -10.0777    1.2105   54.0230 C.3     1  ZINC001191386213   -0.0600
     20 H20        -9.6842    1.9480   54.7224 H       1  ZINC001191386213    0.1000
     21 C21       -10.2072   -0.1388   54.6814 C.ar    1  ZINC001191386213   -0.1100
     22 C22       -10.6554   -1.2236   53.9522 C.ar    1  ZINC001191386213   -0.0900
     23 C23       -10.7744   -2.4617   54.5560 C.ar    1  ZINC001191386213   -0.1300
     24 C24       -10.4456   -2.6159   55.8897 C.ar    1  ZINC001191386213   -0.0900
     25 C25        -9.9974   -1.5322   56.6212 C.ar    1  ZINC001191386213   -0.1500
     26 C26        -9.8716   -0.2935   56.0160 C.ar    1  ZINC001191386213    0.1100
     27 F27        -9.4337    0.7665   56.7301 F       1  ZINC001191386213   -0.1400
     28 C28        -9.1994    1.1228   52.7473 C.3     1  ZINC001191386213    0.1200
     29 C29        -6.3520    3.0733   50.9795 C.2     1  ZINC001191386213   -0.1300
     30 C30        -2.9664    1.7331   49.8779 C.ar    1  ZINC001191386213   -0.1000
     31 H31         2.6118    0.9866   48.7102 H       1  ZINC001191386213    0.1000
     32 H32         1.5126   -0.4085   48.8297 H       1  ZINC001191386213    0.0900
     33 H33         1.3745    0.7186   47.4589 H       1  ZINC001191386213    0.0900
     34 H34        -1.0222    0.4926   48.6703 H       1  ZINC001191386213    0.4100
     35 H35        -0.0859    3.2290   50.8281 H       1  ZINC001191386213    0.1300
     36 H36        -1.6740    4.5985   52.1125 H       1  ZINC001191386213    0.1300
     37 H37        -4.0867    4.1436   51.9804 H       1  ZINC001191386213    0.1300
     38 H38        -7.7772    0.5365   49.8025 H       1  ZINC001191386213    0.4400
     39 H39       -11.0444    3.6521   52.6283 H       1  ZINC001191386213    0.0700
     40 H40       -11.6730    2.4847   51.4322 H       1  ZINC001191386213    0.0800
     41 H41       -12.0179    2.2119   54.1797 H       1  ZINC001191386213    0.0900
     42 H42       -11.9966    0.8239   53.0429 H       1  ZINC001191386213    0.0900
     43 H43       -10.9133   -1.1042   52.9102 H       1  ZINC001191386213    0.1300
     44 H44       -11.1248   -3.3090   53.9853 H       1  ZINC001191386213    0.1300
     45 H45       -10.5392   -3.5834   56.3604 H       1  ZINC001191386213    0.1300
     46 H46        -9.7412   -1.6527   57.6635 H       1  ZINC001191386213    0.1400
     47 H47        -9.3731    0.1786   52.2312 H       1  ZINC001191386213    0.0800
     48 H48        -8.1453    1.2272   53.0045 H       1  ZINC001191386213    0.0900
     49 H49        -6.2495    4.0425   51.4447 H       1  ZINC001191386213    0.1700
     50 H50        -3.3272    0.9292   49.2533 H       1  ZINC001191386213    0.1500
@<TRIPOS>BOND
     1     1     2    1
     2     1    31    1
     3     1    32    1
     4     1    33    1
     5     2     3    2
     6     2     4   am
     7     4     5    1
     8     4    34    1
     9     5    30   ar
    10     5     6   ar
    11     6     7   ar
    12     6    35    1
    13     7     8   ar
    14     7    36    1
    15     8     9   ar
    16     8    37    1
    17     9    10    1
    18     9    30   ar
    19    10    29    1
    20    10    11    2
    21    11    12    1
    22    12    13    1
    23    12    38    1
    24    13    14    1
    25    13    29    2
    26    14    15    2
    27    14    16   am
    28    16    28    1
    29    16    17    1
    30    17    18    1
    31    17    39    1
    32    17    40    1
    33    18    19    1
    34    18    41    1
    35    18    42    1
    36    19    20    1
    37    19    21    1
    38    19    28    1
    39    21    26   ar
    40    21    22   ar
    41    22    23   ar
    42    22    43    1
    43    23    24   ar
    44    23    44    1
    45    24    25   ar
    46    24    45    1
    47    25    26   ar
    48    25    46    1
    49    26    27    1
    50    28    47    1
    51    28    48    1
    52    29    49    1
    53    30    50    1
@<TRIPOS>SUBSTRUCTURE
     1 ZINC001191386213        1 TEMP              0 ****  ****    0 ROOT


##########                                Name:    ZINC000956479608
##########                DOCK_Rotatable_Bonds:                   5
##########                         Heavy_Atoms:                  25
##########                    Molecular_Weight:             345.442
##########                DOCK_Rotatable_Bonds:                   5
##########                       Formal_Charge:          -0.0100001
##########                     HBond_Acceptors:                   6
##########                        HBond_Donors:                   1
##########                         Heavy_Atoms:                  25
##########                          Grid_Score:          -28.973690
##########                     Grid_vdw_energy:          -28.601059
##########                      Grid_es_energy:           -0.372631
##########           Internal_energy_repulsive:           32.375603

@<TRIPOS>MOLECULE
ZINC000956479608
 52 55 1 0 0
SMALL
USER_CHARGES


@<TRIPOS>ATOM
      1 C1         -9.0111    3.1688   64.9681 C.3     1  ZINC000956479608   -0.0900
      2 C2         -8.6105    1.7160   64.9714 C.2     1  ZINC000956479608   -0.1100
      3 C3         -8.5550    0.8536   63.9105 C.2     1  ZINC000956479608   -0.1000
      4 C4         -8.8791    1.1566   62.5038 C.2     1  ZINC000956479608    0.6100
      5 O5         -9.4094    2.2122   62.2157 O.2     1  ZINC000956479608   -0.5000
      6 N6         -8.5874    0.2634   61.5376 N.am    1  ZINC000956479608   -0.7100
      7 C7         -8.9108    0.5635   60.1406 C.3     1  ZINC000956479608    0.1800
      8 C8         -8.1534    1.8179   59.7002 C.3     1  ZINC000956479608   -0.1700
      9 C9         -8.4994   -0.6166   59.2571 C.3     1  ZINC000956479608   -0.1500
     10 C10        -9.2335   -1.8780   59.7226 C.3     1  ZINC000956479608    0.1100
     11 N11       -10.6776   -1.6075   59.7344 N.am    1  ZINC000956479608   -0.6100
     12 C12       -11.5326   -2.4136   59.0742 C.2     1  ZINC000956479608    0.5500
     13 O13       -11.1122   -3.3737   58.4640 O.2     1  ZINC000956479608   -0.5400
     14 C14       -13.0109   -2.1219   59.0943 C.3     1  ZINC000956479608   -0.1900
     15 H15       -13.4442   -1.9547   60.0805 H       1  ZINC000956479608    0.1200
     16 C16       -13.5884   -1.3305   57.9281 C.3     1  ZINC000956479608   -0.1100
     17 H17       -12.8808   -1.0439   57.1502 H       1  ZINC000956479608    0.1000
     18 C18       -14.7022   -0.3247   58.1740 C.3     1  ZINC000956479608   -0.0900
     19 C19       -15.8204   -0.9557   59.0037 C.3     1  ZINC000956479608   -0.1200
     20 C20       -16.2933   -2.2311   58.2968 C.3     1  ZINC000956479608   -0.1200
     21 C21       -15.2386   -3.3193   58.4980 C.3     1  ZINC000956479608   -0.0900
     22 C22       -13.8870   -2.8196   58.0424 C.3     1  ZINC000956479608   -0.1100
     23 H23       -13.3687   -3.4592   57.3281 H       1  ZINC000956479608    0.1100
     24 C24       -11.1720   -0.4420   60.4800 C.3     1  ZINC000956479608    0.1000
     25 C25       -10.4162    0.8033   60.0060 C.3     1  ZINC000956479608   -0.1400
     26 O26        -8.1444   -0.3273   64.4102 O.3     1  ZINC000956479608    0.1200
     27 N27        -7.9579   -0.2623   65.6028 N.2     1  ZINC000956479608   -0.3400
     28 C28        -8.1990    0.9283   66.0694 C.2     1  ZINC000956479608   -0.0100
     29 H29        -8.1309    3.7879   64.7945 H       1  ZINC000956479608    0.0800
     30 H30        -9.7396    3.3431   64.1763 H       1  ZINC000956479608    0.0900
     31 H31        -9.4522    3.4263   65.9310 H       1  ZINC000956479608    0.0800
     32 H32        -8.1632   -0.5782   61.7671 H       1  ZINC000956479608    0.4100
     33 H33        -7.0811    1.6474   59.7965 H       1  ZINC000956479608    0.0800
     34 H34        -8.3939    2.0413   58.6609 H       1  ZINC000956479608    0.0700
     35 H35        -8.4456    2.6585   60.3296 H       1  ZINC000956479608    0.0600
     36 H36        -8.7623   -0.4041   58.2208 H       1  ZINC000956479608    0.0800
     37 H37        -7.4234   -0.7719   59.3355 H       1  ZINC000956479608    0.1000
     38 H38        -9.0209   -2.6983   59.0372 H       1  ZINC000956479608    0.0900
     39 H39        -8.9032   -2.1433   60.7269 H       1  ZINC000956479608    0.0600
     40 H40       -14.2988    0.5350   58.7090 H       1  ZINC000956479608    0.0700
     41 H41       -15.1066    0.0052   57.2171 H       1  ZINC000956479608    0.0700
     42 H42       -15.4438   -1.2054   59.9956 H       1  ZINC000956479608    0.0600
     43 H43       -16.6513   -0.2557   59.0904 H       1  ZINC000956479608    0.0700
     44 H44       -17.2415   -2.5567   58.7248 H       1  ZINC000956479608    0.0700
     45 H45       -16.4179   -2.0345   57.2319 H       1  ZINC000956479608    0.0700
     46 H46       -15.1863   -3.5807   59.5549 H       1  ZINC000956479608    0.0700
     47 H47       -15.5166   -4.2026   57.9229 H       1  ZINC000956479608    0.0700
     48 H48       -12.2385   -0.3150   60.2942 H       1  ZINC000956479608    0.0900
     49 H49       -10.9998   -0.5903   61.5460 H       1  ZINC000956479608    0.0700
     50 H50       -10.7045    1.6585   60.6173 H       1  ZINC000956479608    0.0900
     51 H51       -10.6611    1.0023   58.9626 H       1  ZINC000956479608    0.0900
     52 H52        -8.1098    1.2492   67.0967 H       1  ZINC000956479608    0.2000
@<TRIPOS>BOND
     1     1     2    1
     2     1    29    1
     3     1    30    1
     4     1    31    1
     5     2    28    1
     6     2     3    2
     7     3     4    1
     8     3    26    1
     9     4     5    2
    10     4     6   am
    11     6     7    1
    12     6    32    1
    13     7    25    1
    14     7     8    1
    15     7     9    1
    16     8    33    1
    17     8    34    1
    18     8    35    1
    19     9    10    1
    20     9    36    1
    21     9    37    1
    22    10    11    1
    23    10    38    1
    24    10    39    1
    25    11    12   am
    26    11    24    1
    27    12    13    2
    28    12    14    1
    29    14    15    1
    30    14    22    1
    31    14    16    1
    32    16    17    1
    33    16    22    1
    34    16    18    1
    35    18    19    1
    36    18    40    1
    37    18    41    1
    38    19    20    1
    39    19    42    1
    40    19    43    1
    41    20    21    1
    42    20    44    1
    43    20    45    1
    44    21    22    1
    45    21    46    1
    46    21    47    1
    47    22    23    1
    48    24    25    1
    49    24    48    1
    50    24    49    1
    51    25    50    1
    52    25    51    1
    53    26    27    1
    54    27    28    2
    55    28    52    1
@<TRIPOS>SUBSTRUCTURE
     1 ZINC000956479608        1 TEMP              0 ****  ****    0 ROOT


##########                                Name:    ZINC001436455587
##########                DOCK_Rotatable_Bonds:                   9
##########                         Heavy_Atoms:                  21
##########                    Molecular_Weight:             378.693
##########                DOCK_Rotatable_Bonds:                   9
##########                       Formal_Charge:          -0.0200001
##########                     HBond_Acceptors:                   5
##########                        HBond_Donors:                   1
##########                         Heavy_Atoms:                  21
##########                          Grid_Score:          -28.947828
##########                     Grid_vdw_energy:          -28.758543
##########                      Grid_es_energy:           -0.189285
##########           Internal_energy_repulsive:            9.315980

@<TRIPOS>MOLECULE
ZINC001436455587
 42 42 1 0 0
SMALL
USER_CHARGES


@<TRIPOS>ATOM
      1 C1        -14.2401   -1.6809   57.8133 C.3     1  ZINC001436455587   -0.1500
      2 C2        -13.0538   -2.4132   57.1830 C.3     1  ZINC001436455587   -0.1300
      3 C3        -11.7966   -1.5502   57.3089 C.3     1  ZINC001436455587   -0.1400
      4 C4        -10.6099   -2.2833   56.6802 C.3     1  ZINC001436455587    0.0800
      5 H5         -9.6794   -1.8571   57.0556 H       1  ZINC001436455587    0.0700
      6 C6        -10.6636   -2.1300   55.1588 C.3     1  ZINC001436455587    0.1200
      7 N7        -10.2589   -0.7711   54.7903 N.am    1  ZINC001436455587   -0.7200
      8 C8        -10.2114   -0.4108   53.4924 C.2     1  ZINC001436455587    0.5200
      9 O9        -10.5050   -1.2111   52.6298 O.2     1  ZINC001436455587   -0.5100
     10 C10        -9.7935    0.9866   53.1132 C.3     1  ZINC001436455587    0.0600
     11 H11        -8.8537    1.2316   53.6081 H       1  ZINC001436455587    0.1000
     12 C12       -10.8736    1.9782   53.5500 C.3     1  ZINC001436455587   -0.1800
     13 O13        -9.6203    1.0642   51.6969 O.3     1  ZINC001436455587   -0.2700
     14 C14        -8.3521    1.2362   51.2386 C.ar    1  ZINC001436455587    0.1600
     15 C15        -7.4220    0.2163   51.3705 C.ar    1  ZINC001436455587   -0.2000
     16 C16        -6.1334    0.3927   50.9037 C.ar    1  ZINC001436455587   -0.0500
     17 C17        -5.7705    1.5859   50.3052 C.ar    1  ZINC001436455587   -0.0700
     18 Cl18       -4.1507    1.8048   49.7202 Cl      1  ZINC001436455587   -0.0600
     19 C19        -6.6969    2.6052   50.1719 C.ar    1  ZINC001436455587   -0.0400
     20 C20        -7.9881    2.4310   50.6327 C.ar    1  ZINC001436455587   -0.1200
     21 Br21       -9.2540    3.8239   50.4505 Br      1  ZINC001436455587   -0.0100
     22 O22       -10.6709   -3.6695   57.0217 O.3     1  ZINC001436455587   -0.3800
     23 C23       -10.0886   -3.9821   58.2888 C.3     1  ZINC001436455587    0.0200
     24 H24       -14.0327   -1.4924   58.8667 H       1  ZINC001436455587    0.0500
     25 H25       -14.3970   -0.7329   57.2986 H       1  ZINC001436455587    0.0600
     26 H26       -15.1357   -2.2956   57.7237 H       1  ZINC001436455587    0.0600
     27 H27       -12.8968   -3.3611   57.6978 H       1  ZINC001436455587    0.0600
     28 H28       -13.2611   -2.6016   56.1297 H       1  ZINC001436455587    0.0700
     29 H29       -11.9530   -0.6029   56.7930 H       1  ZINC001436455587    0.0800
     30 H30       -11.5900   -1.3607   58.3621 H       1  ZINC001436455587    0.0800
     31 H31        -9.9862   -2.8486   54.6972 H       1  ZINC001436455587    0.0800
     32 H32       -11.6801   -2.3135   54.8108 H       1  ZINC001436455587    0.0800
     33 H33       -10.0252   -0.1307   55.4803 H       1  ZINC001436455587    0.4000
     34 H34       -10.5713    2.9889   53.2757 H       1  ZINC001436455587    0.0800
     35 H35       -11.8134    1.7332   53.0552 H       1  ZINC001436455587    0.0800
     36 H36       -11.0056    1.9191   54.6304 H       1  ZINC001436455587    0.0800
     37 H37        -7.7044   -0.7153   51.8382 H       1  ZINC001436455587    0.1500
     38 H38        -5.4089   -0.4016   51.0064 H       1  ZINC001436455587    0.1400
     39 H39        -6.4118    3.5360   49.7041 H       1  ZINC001436455587    0.1500
     40 H40       -10.6649   -3.5044   59.0812 H       1  ZINC001436455587    0.0500
     41 H41       -10.0954   -5.0622   58.4352 H       1  ZINC001436455587    0.0900
     42 H42        -9.0616   -3.6180   58.3164 H       1  ZINC001436455587    0.0400
@<TRIPOS>BOND
     1     1     2    1
     2     1    24    1
     3     1    25    1
     4     1    26    1
     5     2     3    1
     6     2    27    1
     7     2    28    1
     8     3     4    1
     9     3    29    1
    10     3    30    1
    11     4     5    1
    12     4     6    1
    13     4    22    1
    14     6     7    1
    15     6    31    1
    16     6    32    1
    17     7     8   am
    18     7    33    1
    19     8     9    2
    20     8    10    1
    21    10    11    1
    22    10    12    1
    23    10    13    1
    24    12    34    1
    25    12    35    1
    26    12    36    1
    27    13    14    1
    28    14    20   ar
    29    14    15   ar
    30    15    16   ar
    31    15    37    1
    32    16    17   ar
    33    16    38    1
    34    17    18    1
    35    17    19   ar
    36    19    20   ar
    37    19    39    1
    38    20    21    1
    39    22    23    1
    40    23    40    1
    41    23    41    1
    42    23    42    1
@<TRIPOS>SUBSTRUCTURE
     1 ZINC001436455587        1 TEMP              0 ****  ****    0 ROOT


##########                                Name:    ZINC000074782190
##########                DOCK_Rotatable_Bonds:                   9
##########                         Heavy_Atoms:                  25
##########                    Molecular_Weight:             341.453
##########                DOCK_Rotatable_Bonds:                   9
##########                       Formal_Charge:          -0.0200006
##########                     HBond_Acceptors:                   5
##########                        HBond_Donors:                   1
##########                         Heavy_Atoms:                  25
##########                          Grid_Score:          -28.916042
##########                     Grid_vdw_energy:          -29.108261
##########                      Grid_es_energy:            0.192220
##########           Internal_energy_repulsive:           23.636139

@<TRIPOS>MOLECULE
ZINC000074782190
 52 53 1 0 0
SMALL
USER_CHARGES


@<TRIPOS>ATOM
      1 C1         -7.4384    2.5585   54.6707 C.3     1  ZINC000074782190   -0.1100
      2 C2         -7.4653    1.6932   53.4372 C.ar    1  ZINC000074782190   -0.1200
      3 C3         -6.3200    1.5295   52.6826 C.ar    1  ZINC000074782190   -0.0800
      4 C4         -6.3442    0.7359   51.5503 C.ar    1  ZINC000074782190   -0.1500
      5 C5         -7.5140    0.1044   51.1710 C.ar    1  ZINC000074782190   -0.0900
      6 C6         -8.6621    0.2646   51.9226 C.ar    1  ZINC000074782190   -0.2100
      7 C7         -8.6391    1.0557   53.0617 C.ar    1  ZINC000074782190    0.1300
      8 O8         -9.7672    1.2150   53.8028 O.3     1  ZINC000074782190   -0.3000
      9 C9        -10.0482    0.2113   54.7803 C.3     1  ZINC000074782190    0.0700
     10 H10        -9.1495   -0.3768   54.9660 H       1  ZINC000074782190    0.0800
     11 C11       -11.1600   -0.7050   54.2653 C.3     1  ZINC000074782190   -0.1800
     12 C12       -10.4989    0.8784   56.0813 C.3     1  ZINC000074782190    0.1400
     13 N13       -10.4228   -0.0894   57.1783 N.am    1  ZINC000074782190   -0.7500
     14 C14        -9.3830   -0.0564   58.0353 C.2     1  ZINC000074782190    0.7100
     15 O15        -8.5082    0.7767   57.8978 O.2     1  ZINC000074782190   -0.5900
     16 N16        -9.3130   -0.9468   59.0445 N.am    1  ZINC000074782190   -0.6200
     17 C17        -8.1829   -0.9110   59.9760 C.3     1  ZINC000074782190    0.1800
     18 C18        -8.5347   -0.0473   61.1598 C.ar    1  ZINC000074782190   -0.1600
     19 C19        -9.4118    1.0166   61.0165 C.ar    1  ZINC000074782190   -0.0500
     20 C20        -9.7069    1.7838   62.1333 C.ar    1  ZINC000074782190   -0.1800
     21 C21        -9.1210    1.4646   63.3435 C.ar    1  ZINC000074782190    0.1000
     22 N22        -8.2907    0.4447   63.4428 N.ar    1  ZINC000074782190   -0.4900
     23 C23        -7.9913   -0.3094   62.4035 C.ar    1  ZINC000074782190    0.1100
     24 C24       -10.3672   -1.9507   59.2102 C.3     1  ZINC000074782190    0.1300
     25 C25        -9.9178   -3.2708   58.5805 C.3     1  ZINC000074782190   -0.1800
     26 C26       -10.6395   -2.1632   60.7006 C.3     1  ZINC000074782190   -0.1800
     27 H27        -7.1700    1.9510   55.5350 H       1  ZINC000074782190    0.0700
     28 H28        -6.7023    3.3522   54.5418 H       1  ZINC000074782190    0.0600
     29 H29        -8.4232    2.9984   54.8276 H       1  ZINC000074782190    0.0700
     30 H30        -5.4050    2.0218   52.9770 H       1  ZINC000074782190    0.1300
     31 H31        -5.4479    0.6098   50.9613 H       1  ZINC000074782190    0.1200
     32 H32        -7.5304   -0.5145   50.2860 H       1  ZINC000074782190    0.1200
     33 H33        -9.5758   -0.2287   51.6256 H       1  ZINC000074782190    0.1300
     34 H34       -12.0587   -0.1169   54.0796 H       1  ZINC000074782190    0.0700
     35 H35       -10.8388   -1.1804   53.3384 H       1  ZINC000074782190    0.0700
     36 H36       -11.3744   -1.4707   55.0109 H       1  ZINC000074782190    0.0800
     37 H37        -9.8492    1.7261   56.2989 H       1  ZINC000074782190    0.0800
     38 H38       -11.5264    1.2264   55.9743 H       1  ZINC000074782190    0.0900
     39 H39       -11.1208   -0.7541   57.2880 H       1  ZINC000074782190    0.4100
     40 H40        -7.9610   -1.9221   60.3171 H       1  ZINC000074782190    0.0900
     41 H41        -7.3093   -0.4978   59.4717 H       1  ZINC000074782190    0.1000
     42 H42        -9.8545    1.2428   60.0577 H       1  ZINC000074782190    0.1400
     43 H43       -10.3857    2.6204   62.0582 H       1  ZINC000074782190    0.1300
     44 H44        -9.3453    2.0574   64.2179 H       1  ZINC000074782190    0.1600
     45 H45        -7.3071   -1.1364   62.5235 H       1  ZINC000074782190    0.1500
     46 H46       -11.2776   -1.6057   58.7201 H       1  ZINC000074782190    0.1000
     47 H47        -9.0607   -3.6616   59.1288 H       1  ZINC000074782190    0.0600
     48 H48       -10.7353   -3.9905   58.6231 H       1  ZINC000074782190    0.0700
     49 H49        -9.6374   -3.1005   57.5410 H       1  ZINC000074782190    0.0600
     50 H50       -11.0686   -1.2553   61.1246 H       1  ZINC000074782190    0.0700
     51 H51       -11.3387   -2.9896   60.8280 H       1  ZINC000074782190    0.0700
     52 H52        -9.7049   -2.3962   61.2111 H       1  ZINC000074782190    0.0700
@<TRIPOS>BOND
     1     1     2    1
     2     1    27    1
     3     1    28    1
     4     1    29    1
     5     2     7   ar
     6     2     3   ar
     7     3     4   ar
     8     3    30    1
     9     4     5   ar
    10     4    31    1
    11     5     6   ar
    12     5    32    1
    13     6     7   ar
    14     6    33    1
    15     7     8    1
    16     8     9    1
    17     9    10    1
    18     9    11    1
    19     9    12    1
    20    11    34    1
    21    11    35    1
    22    11    36    1
    23    12    13    1
    24    12    37    1
    25    12    38    1
    26    13    14   am
    27    13    39    1
    28    14    15    2
    29    14    16   am
    30    16    17    1
    31    16    24    1
    32    17    18    1
    33    17    40    1
    34    17    41    1
    35    18    23   ar
    36    18    19   ar
    37    19    20   ar
    38    19    42    1
    39    20    21   ar
    40    20    43    1
    41    21    22   ar
    42    21    44    1
    43    22    23   ar
    44    23    45    1
    45    24    25    1
    46    24    26    1
    47    24    46    1
    48    25    47    1
    49    25    48    1
    50    25    49    1
    51    26    50    1
    52    26    51    1
    53    26    52    1
@<TRIPOS>SUBSTRUCTURE
     1 ZINC000074782190        1 TEMP              0 ****  ****    0 ROOT


##########                                Name:    ZINC000885154703
##########                DOCK_Rotatable_Bonds:                   5
##########                         Heavy_Atoms:                  24
##########                    Molecular_Weight:             396.259
##########                DOCK_Rotatable_Bonds:                   5
##########                       Formal_Charge:          -0.0099998
##########                     HBond_Acceptors:                   6
##########                        HBond_Donors:                   1
##########                         Heavy_Atoms:                  24
##########                          Grid_Score:          -28.915218
##########                     Grid_vdw_energy:          -29.031033
##########                      Grid_es_energy:            0.115814
##########           Internal_energy_repulsive:            7.717341

@<TRIPOS>MOLECULE
ZINC000885154703
 43 45 1 0 0
SMALL
USER_CHARGES


@<TRIPOS>ATOM
      1 C1        -15.8104   -3.8774   58.8744 C.3     1  ZINC000885154703   -0.1500
      2 C2        -15.3863   -2.4086   58.8116 C.3     1  ZINC000885154703   -0.0300
      3 C3        -13.9414   -2.2849   59.2217 C.2     1  ZINC000885154703    0.1700
      4 N4        -13.4946   -2.1565   60.4350 N.2     1  ZINC000885154703   -0.3800
      5 O5        -12.2838   -2.0825   60.4310 O.3     1  ZINC000885154703    0.0800
      6 C6        -11.8295   -2.1590   59.1764 C.2     1  ZINC000885154703    0.1800
      7 C7        -10.3884   -2.1069   58.7391 C.3     1  ZINC000885154703    0.0000
      8 H8        -10.0319   -3.1109   58.5087 H       1  ZINC000885154703    0.1300
      9 C9         -9.5212   -1.4805   59.8505 C.3     1  ZINC000885154703   -0.1200
     10 C10        -8.4717   -0.6378   59.0838 C.3     1  ZINC000885154703   -0.1300
     11 C11        -9.2949   -0.0527   57.9095 C.3     1  ZINC000885154703    0.1400
     12 H12        -9.8646    0.8163   58.2387 H       1  ZINC000885154703    0.1000
     13 N13        -8.4146    0.3051   56.7945 N.am    1  ZINC000885154703   -0.7100
     14 C14        -8.7127    1.3618   56.0128 C.2     1  ZINC000885154703    0.5700
     15 O15        -9.7129    2.0171   56.2321 O.2     1  ZINC000885154703   -0.5100
     16 C16        -7.8243    1.7236   54.8898 C.ar    1  ZINC000885154703   -0.1600
     17 C17        -6.9423    2.8017   55.0110 C.ar    1  ZINC000885154703    0.1500
     18 F18        -6.8996    3.5168   56.1564 F       1  ZINC000885154703   -0.1200
     19 C19        -6.1132    3.1336   53.9547 C.ar    1  ZINC000885154703   -0.1500
     20 C20        -6.1563    2.4026   52.7827 C.ar    1  ZINC000885154703   -0.0400
     21 C21        -7.0282    1.3334   52.6569 C.ar    1  ZINC000885154703   -0.1100
     22 Br22       -7.0771    0.3414   51.0477 Br      1  ZINC000885154703   -0.0300
     23 C23        -7.8568    0.9869   53.7037 C.ar    1  ZINC000885154703    0.0100
     24 C24        -8.8037   -0.1771   53.5638 C.3     1  ZINC000885154703   -0.1300
     25 C25       -10.2448   -1.2002   57.5042 C.3     1  ZINC000885154703   -0.1300
     26 N26       -12.8772   -2.2932   58.3993 N.2     1  ZINC000885154703   -0.4800
     27 H27       -15.1892   -4.4641   58.1977 H       1  ZINC000885154703    0.0600
     28 H28       -15.6886   -4.2474   59.8924 H       1  ZINC000885154703    0.0600
     29 H29       -16.8554   -3.9668   58.5779 H       1  ZINC000885154703    0.0700
     30 H30       -15.5081   -2.0385   57.7936 H       1  ZINC000885154703    0.1000
     31 H31       -16.0075   -1.8218   59.4883 H       1  ZINC000885154703    0.0900
     32 H32       -10.1274   -0.8419   60.4931 H       1  ZINC000885154703    0.0800
     33 H33        -9.0316   -2.2583   60.4365 H       1  ZINC000885154703    0.0900
     34 H34        -8.0799    0.1592   59.7157 H       1  ZINC000885154703    0.0800
     35 H35        -7.6650   -1.2700   58.7129 H       1  ZINC000885154703    0.0800
     36 H36        -7.6172   -0.2186   56.6188 H       1  ZINC000885154703    0.4000
     37 H37        -5.4310    3.9660   54.0459 H       1  ZINC000885154703    0.1500
     38 H38        -5.5073    2.6664   51.9608 H       1  ZINC000885154703    0.1500
     39 H39        -8.3082   -1.0902   53.8937 H       1  ZINC000885154703    0.0900
     40 H40        -9.6880   -0.0019   54.1766 H       1  ZINC000885154703    0.0800
     41 H41        -9.0997   -0.2811   52.5200 H       1  ZINC000885154703    0.0900
     42 H42        -9.8175   -1.7629   56.6742 H       1  ZINC000885154703    0.0900
     43 H43       -11.2173   -0.7976   57.2216 H       1  ZINC000885154703    0.0800
@<TRIPOS>BOND
     1     1     2    1
     2     1    27    1
     3     1    28    1
     4     1    29    1
     5     2     3    1
     6     2    30    1
     7     2    31    1
     8     3    26    1
     9     3     4    2
    10     4     5    1
    11     5     6    1
    12     6     7    1
    13     6    26    2
    14     7     8    1
    15     7    25    1
    16     7     9    1
    17     9    10    1
    18     9    32    1
    19     9    33    1
    20    10    11    1
    21    10    34    1
    22    10    35    1
    23    11    12    1
    24    11    13    1
    25    11    25    1
    26    13    14   am
    27    13    36    1
    28    14    15    2
    29    14    16    1
    30    16    23   ar
    31    16    17   ar
    32    17    18    1
    33    17    19   ar
    34    19    20   ar
    35    19    37    1
    36    20    21   ar
    37    20    38    1
    38    21    22    1
    39    21    23   ar
    40    23    24    1
    41    24    39    1
    42    24    40    1
    43    24    41    1
    44    25    42    1
    45    25    43    1
@<TRIPOS>SUBSTRUCTURE
     1 ZINC000885154703        1 TEMP              0 ****  ****    0 ROOT


##########                                Name:    ZINC000277085192
##########                DOCK_Rotatable_Bonds:                   4
##########                         Heavy_Atoms:                  23
##########                    Molecular_Weight:             335.747
##########                DOCK_Rotatable_Bonds:                   4
##########                       Formal_Charge:         5.96046e-08
##########                     HBond_Acceptors:                   8
##########                        HBond_Donors:                   2
##########                         Heavy_Atoms:                  23
##########                          Grid_Score:          -28.910370
##########                     Grid_vdw_energy:          -26.428753
##########                      Grid_es_energy:           -2.481617
##########           Internal_energy_repulsive:            7.878067

@<TRIPOS>MOLECULE
ZINC000277085192
 37 39 1 0 0
SMALL
USER_CHARGES


@<TRIPOS>ATOM
      1 O1         -9.7403   -0.9508   61.8695 O.2     1  ZINC000277085192   -0.5000
      2 C2         -8.5964   -0.5487   61.9016 C.2     1  ZINC000277085192    0.5000
      3 C3         -7.9406   -0.2469   63.2244 C.3     1  ZINC000277085192    0.1100
      4 N4         -8.5674    0.9348   63.8218 N.am    1  ZINC000277085192   -0.6000
      5 C5         -8.7425    2.1444   63.0156 C.3     1  ZINC000277085192    0.1100
      6 C6        -10.0580    2.8271   63.3968 C.3     1  ZINC000277085192   -0.1600
      7 C7        -10.1614    2.8997   64.8996 C.2     1  ZINC000277085192    0.5200
      8 O8        -10.7021    3.8489   65.4251 O.2     1  ZINC000277085192   -0.5000
      9 N9         -9.6536    1.9100   65.6568 N.am    1  ZINC000277085192   -0.6700
     10 C10        -8.9783    0.8916   65.0997 C.2     1  ZINC000277085192    0.7200
     11 O11        -8.7251   -0.0897   65.7705 O.2     1  ZINC000277085192   -0.5500
     12 N12        -7.9100   -0.3772   60.7545 N.am    1  ZINC000277085192   -0.6700
     13 C13        -8.5192   -0.6575   59.5254 C.ar    1  ZINC000277085192    0.1400
     14 C14        -9.0178   -1.9222   59.2736 C.ar    1  ZINC000277085192   -0.0400
     15 C15        -9.6280   -2.2041   58.0415 C.ar    1  ZINC000277085192   -0.1700
     16 C16        -9.7256   -1.1986   57.0790 C.ar    1  ZINC000277085192   -0.0500
     17 C17        -9.2238    0.0621   57.3425 C.ar    1  ZINC000277085192   -0.0900
     18 C18        -8.6278    0.3384   58.5593 C.ar    1  ZINC000277085192   -0.0300
     19 Cl19       -8.0017    1.9260   58.8772 Cl      1  ZINC000277085192   -0.0500
     20 C20       -10.4156   -1.7402   55.8497 C.3     1  ZINC000277085192   -0.0800
     21 C21       -10.7425   -3.2092   56.1509 C.3     1  ZINC000277085192   -0.1700
     22 C22       -10.2253   -3.4552   57.5473 C.2     1  ZINC000277085192    0.4100
     23 O23       -10.2909   -4.5018   58.1565 O.2     1  ZINC000277085192   -0.4300
     24 H24        -8.0615   -1.0993   63.8928 H       1  ZINC000277085192    0.1300
     25 H25        -6.8790   -0.0553   63.0683 H       1  ZINC000277085192    0.1200
     26 H26        -7.9126    2.8267   63.1996 H       1  ZINC000277085192    0.0800
     27 H27        -8.7649    1.8767   61.9593 H       1  ZINC000277085192    0.1000
     28 H28       -10.0793    3.8345   62.9812 H       1  ZINC000277085192    0.1300
     29 H29       -10.8949    2.2514   63.0016 H       1  ZINC000277085192    0.1200
     30 H30        -9.7803    1.9310   66.6183 H       1  ZINC000277085192    0.4300
     31 H31        -6.9939   -0.0593   60.7804 H       1  ZINC000277085192    0.4200
     32 H32        -8.9373   -2.6937   60.0251 H       1  ZINC000277085192    0.1500
     33 H33        -9.3011    0.8374   56.5946 H       1  ZINC000277085192    0.1500
     34 H34       -11.3334   -1.1837   55.6599 H       1  ZINC000277085192    0.1000
     35 H35        -9.7516   -1.6734   54.9878 H       1  ZINC000277085192    0.1000
     36 H36       -11.8196   -3.3717   56.1129 H       1  ZINC000277085192    0.1100
     37 H37       -10.2359   -3.8621   55.4400 H       1  ZINC000277085192    0.1100
@<TRIPOS>BOND
     1     1     2    2
     2     2     3    1
     3     2    12   am
     4     3     4    1
     5     3    24    1
     6     3    25    1
     7     4    10   am
     8     4     5    1
     9     5     6    1
    10     5    26    1
    11     5    27    1
    12     6     7    1
    13     6    28    1
    14     6    29    1
    15     7     8    2
    16     7     9   am
    17     9    10   am
    18     9    30    1
    19    10    11    2
    20    12    13    1
    21    12    31    1
    22    13    18   ar
    23    13    14   ar
    24    14    15   ar
    25    14    32    1
    26    15    22    1
    27    15    16   ar
    28    16    17   ar
    29    16    20    1
    30    17    18   ar
    31    17    33    1
    32    18    19    1
    33    20    21    1
    34    20    34    1
    35    20    35    1
    36    21    22    1
    37    21    36    1
    38    21    37    1
    39    22    23    2
@<TRIPOS>SUBSTRUCTURE
     1 ZINC000277085192        1 TEMP              0 ****  ****    0 ROOT


##########                                Name:    ZINC000859202493
##########                DOCK_Rotatable_Bonds:                  11
##########                         Heavy_Atoms:                  25
##########                    Molecular_Weight:             382.404
##########                DOCK_Rotatable_Bonds:                  11
##########                       Formal_Charge:          -0.0200009
##########                     HBond_Acceptors:                  10
##########                        HBond_Donors:                   3
##########                         Heavy_Atoms:                  25
##########                          Grid_Score:          -28.909676
##########                     Grid_vdw_energy:          -26.765137
##########                      Grid_es_energy:           -2.144538
##########           Internal_energy_repulsive:           10.796334

@<TRIPOS>MOLECULE
ZINC000859202493
 46 46 1 0 0
SMALL
USER_CHARGES


@<TRIPOS>ATOM
      1 C1        -13.3499   -0.9573   58.5915 C.3     1  ZINC000859202493   -0.1500
      2 C2        -12.6357   -2.3061   58.6992 C.3     1  ZINC000859202493   -0.1200
      3 C3        -11.1635   -2.1354   58.3194 C.3     1  ZINC000859202493   -0.1000
      4 H4        -11.0759   -1.3874   57.5314 H       1  ZINC000859202493    0.0700
      5 C5        -10.6076   -3.4704   57.8195 C.3     1  ZINC000859202493   -0.1600
      6 C6        -10.3700   -1.6797   59.5456 C.3     1  ZINC000859202493   -0.1200
      7 C7         -9.0750   -1.0027   59.0923 C.3     1  ZINC000859202493    0.1600
      8 H8         -8.8710   -1.2665   58.0546 H       1  ZINC000859202493    0.1000
      9 C9         -7.9173   -1.4734   59.9750 C.3     1  ZINC000859202493    0.0500
     10 O10        -7.4467   -2.7395   59.5083 O.3     1  ZINC000859202493   -0.5700
     11 N11        -9.2174    0.4507   59.2079 N.am    1  ZINC000859202493   -1.1000
     12 S12        -8.4138    1.4476   58.1576 S.o2    1  ZINC000859202493    2.6900
     13 O13        -8.8705    2.7660   58.4268 O.2     1  ZINC000859202493   -0.9500
     14 O14        -7.0445    1.0722   58.2163 O.2     1  ZINC000859202493   -0.9500
     15 C15        -8.9694    1.0505   56.5332 C.ar    1  ZINC000859202493   -0.6600
     16 C16       -10.3211    0.9039   56.2824 C.ar    1  ZINC000859202493   -0.0300
     17 C17       -10.7613    0.5918   55.0089 C.ar    1  ZINC000859202493   -0.1100
     18 C18        -9.8512    0.4261   53.9836 C.ar    1  ZINC000859202493   -0.0600
     19 C19        -8.4927    0.5732   54.2322 C.ar    1  ZINC000859202493    0.1200
     20 N20        -7.5681    0.4064   53.1953 N.am    1  ZINC000859202493   -0.6500
     21 C21        -7.5196    1.2980   52.1857 C.2     1  ZINC000859202493    0.4800
     22 O22        -8.2773    2.2450   52.1761 O.2     1  ZINC000859202493   -0.4500
     23 C23        -6.5238    1.1184   51.0690 C.3     1  ZINC000859202493    0.4600
     24 F24        -7.1600    1.3215   49.8397 F       1  ZINC000859202493   -0.1500
     25 F25        -5.4862    2.0452   51.2158 F       1  ZINC000859202493   -0.1600
     26 F26        -6.0008   -0.1784   51.1147 F       1  ZINC000859202493   -0.1600
     27 C27        -8.0544    0.8917   55.5107 C.ar    1  ZINC000859202493   -0.0300
     28 H28       -14.3987   -1.0789   58.8620 H       1  ZINC000859202493    0.0500
     29 H29       -12.8807   -0.2427   59.2678 H       1  ZINC000859202493    0.0500
     30 H30       -13.2790   -0.5894   57.5679 H       1  ZINC000859202493    0.0600
     31 H31       -12.7066   -2.6740   59.7228 H       1  ZINC000859202493    0.0600
     32 H32       -13.1049   -3.0207   58.0230 H       1  ZINC000859202493    0.0600
     33 H33        -9.5588   -3.3488   57.5490 H       1  ZINC000859202493    0.0500
     34 H34       -10.6953   -4.2183   58.6076 H       1  ZINC000859202493    0.0600
     35 H35       -11.1729   -3.7950   56.9460 H       1  ZINC000859202493    0.0600
     36 H36       -10.9667   -0.9731   60.1225 H       1  ZINC000859202493    0.0800
     37 H37       -10.1306   -2.5439   60.1653 H       1  ZINC000859202493    0.0800
     38 H38        -7.1071   -0.7457   59.9304 H       1  ZINC000859202493    0.0600
     39 H39        -8.2618   -1.5710   61.0045 H       1  ZINC000859202493    0.0600
     40 H40        -6.7709   -3.1400   60.0721 H       1  ZINC000859202493    0.3800
     41 H41        -9.7824    0.8293   59.8994 H       1  ZINC000859202493    0.4200
     42 H42       -11.0348    1.0329   57.0826 H       1  ZINC000859202493    0.1500
     43 H43       -11.8178    0.4772   54.8163 H       1  ZINC000859202493    0.1400
     44 H44       -10.1956    0.1820   52.9894 H       1  ZINC000859202493    0.1400
     45 H45        -6.9620   -0.3509   53.2031 H       1  ZINC000859202493    0.4200
     46 H46        -6.9987    1.0067   55.7072 H       1  ZINC000859202493    0.1500
@<TRIPOS>BOND
     1     1     2    1
     2     1    28    1
     3     1    29    1
     4     1    30    1
     5     2     3    1
     6     2    31    1
     7     2    32    1
     8     3     4    1
     9     3     5    1
    10     3     6    1
    11     5    33    1
    12     5    34    1
    13     5    35    1
    14     6     7    1
    15     6    36    1
    16     6    37    1
    17     7     8    1
    18     7     9    1
    19     7    11    1
    20     9    10    1
    21     9    38    1
    22     9    39    1
    23    10    40    1
    24    11    12   am
    25    11    41    1
    26    12    13    2
    27    12    14    2
    28    12    15    1
    29    15    27   ar
    30    15    16   ar
    31    16    17   ar
    32    16    42    1
    33    17    18   ar
    34    17    43    1
    35    18    19   ar
    36    18    44    1
    37    19    20    1
    38    19    27   ar
    39    20    21   am
    40    20    45    1
    41    21    22    2
    42    21    23    1
    43    23    24    1
    44    23    25    1
    45    23    26    1
    46    27    46    1
@<TRIPOS>SUBSTRUCTURE
     1 ZINC000859202493        1 TEMP              0 ****  ****    0 ROOT


##########                                Name:    ZINC000057429281
##########                DOCK_Rotatable_Bonds:                  10
##########                         Heavy_Atoms:                  23
##########                    Molecular_Weight:             331.295
##########                DOCK_Rotatable_Bonds:                  10
##########                       Formal_Charge:          -0.0100002
##########                     HBond_Acceptors:                   9
##########                        HBond_Donors:                   5
##########                         Heavy_Atoms:                  23
##########                          Grid_Score:          -28.852745
##########                     Grid_vdw_energy:          -27.055641
##########                      Grid_es_energy:           -1.797103
##########           Internal_energy_repulsive:            9.370621

@<TRIPOS>MOLECULE
ZINC000057429281
 39 39 1 0 0
SMALL
USER_CHARGES


@<TRIPOS>ATOM
      1 C1        -10.7001   -0.6283   52.7691 C.3     1  ZINC000057429281   -0.1500
      2 C2         -9.4107   -0.4878   53.5806 C.3     1  ZINC000057429281   -0.0400
      3 H3         -8.9855   -1.4751   53.7610 H       1  ZINC000057429281    0.0900
      4 C4         -9.7209    0.1863   54.9185 C.3     1  ZINC000057429281   -0.1300
      5 C5         -9.8196   -0.8611   55.9977 C.2     1  ZINC000057429281    0.5200
      6 O6        -10.3373   -1.9314   55.7584 O.2     1  ZINC000057429281   -0.5300
      7 N7         -9.3324   -0.6084   57.2286 N.am    1  ZINC000057429281   -0.7000
      8 C8         -9.4298   -1.6258   58.2781 C.3     1  ZINC000057429281    0.1100
      9 C9         -8.1757   -1.6074   59.1136 C.2     1  ZINC000057429281    0.5200
     10 N10        -7.7231   -2.7461   59.6746 N.am    1  ZINC000057429281   -0.8500
     11 O11        -7.5738   -0.5680   59.2810 O.2     1  ZINC000057429281   -0.5100
     12 C12       -10.6209   -1.3321   59.1535 C.2     1  ZINC000057429281    0.5300
     13 N13       -11.0059   -0.0575   59.3621 N.am    1  ZINC000057429281   -0.8400
     14 O14       -11.2329   -2.2428   59.6703 O.2     1  ZINC000057429281   -0.5100
     15 C15        -8.4228    0.3518   52.8123 C.ar    1  ZINC000057429281   -0.0500
     16 C16        -8.6350    1.7101   52.6679 C.ar    1  ZINC000057429281   -0.1200
     17 C17        -7.7288    2.4802   51.9632 C.ar    1  ZINC000057429281   -0.0700
     18 C18        -6.6101    1.8921   51.4033 C.ar    1  ZINC000057429281   -0.1900
     19 C19        -5.6223    2.7315   50.6347 C.3     1  ZINC000057429281    0.5100
     20 F20        -4.4666    2.9117   51.4022 F       1  ZINC000057429281   -0.1800
     21 F21        -5.2919    2.0851   49.4389 F       1  ZINC000057429281   -0.1800
     22 F22        -6.1916    3.9773   50.3495 F       1  ZINC000057429281   -0.1800
     23 C23        -6.3971    0.5340   51.5489 C.ar    1  ZINC000057429281   -0.0700
     24 C24        -7.3014   -0.2355   52.2568 C.ar    1  ZINC000057429281   -0.1100
     25 H25       -10.4791   -1.1085   51.8159 H       1  ZINC000057429281    0.0600
     26 H26       -11.4147   -1.2355   53.3248 H       1  ZINC000057429281    0.0800
     27 H27       -11.1253    0.3590   52.5886 H       1  ZINC000057429281    0.0500
     28 H28        -8.9243    0.8881   55.1652 H       1  ZINC000057429281    0.1000
     29 H29       -10.6672    0.7220   54.8447 H       1  ZINC000057429281    0.1000
     30 H30        -8.9172    0.2473   57.4197 H       1  ZINC000057429281    0.4200
     31 H31        -9.5479   -2.6085   57.8216 H       1  ZINC000057429281    0.1300
     32 H32        -6.9158   -2.7345   60.2124 H       1  ZINC000057429281    0.4000
     33 H33        -8.2046   -3.5775   59.5408 H       1  ZINC000057429281    0.4100
     34 H34       -11.7726    0.1315   59.9255 H       1  ZINC000057429281    0.4000
     35 H35       -10.5164    0.6708   58.9487 H       1  ZINC000057429281    0.4100
     36 H36        -9.5090    2.1696   53.1054 H       1  ZINC000057429281    0.1400
     37 H37        -7.8949    3.5413   51.8498 H       1  ZINC000057429281    0.1400
     38 H38        -5.5229    0.0746   51.1117 H       1  ZINC000057429281    0.1400
     39 H39        -7.1349   -1.2964   52.3706 H       1  ZINC000057429281    0.1400
@<TRIPOS>BOND
     1     1     2    1
     2     1    25    1
     3     1    26    1
     4     1    27    1
     5     2     3    1
     6     2     4    1
     7     2    15    1
     8     4     5    1
     9     4    28    1
    10     4    29    1
    11     5     6    2
    12     5     7   am
    13     7     8    1
    14     7    30    1
    15     8     9    1
    16     8    12    1
    17     8    31    1
    18     9    10   am
    19     9    11    2
    20    10    32    1
    21    10    33    1
    22    12    13   am
    23    12    14    2
    24    13    34    1
    25    13    35    1
    26    15    24   ar
    27    15    16   ar
    28    16    17   ar
    29    16    36    1
    30    17    18   ar
    31    17    37    1
    32    18    19    1
    33    18    23   ar
    34    19    20    1
    35    19    21    1
    36    19    22    1
    37    23    24   ar
    38    23    38    1
    39    24    39    1
@<TRIPOS>SUBSTRUCTURE
     1 ZINC000057429281        1 TEMP              0 ****  ****    0 ROOT


##########                                Name:    ZINC000626935317
##########                DOCK_Rotatable_Bonds:                   6
##########                         Heavy_Atoms:                  25
##########                    Molecular_Weight:             366.441
##########                DOCK_Rotatable_Bonds:                   6
##########                       Formal_Charge:          -0.0200006
##########                     HBond_Acceptors:                   9
##########                        HBond_Donors:                   2
##########                         Heavy_Atoms:                  25
##########                          Grid_Score:          -28.841204
##########                     Grid_vdw_energy:          -27.735292
##########                      Grid_es_energy:           -1.105911
##########           Internal_energy_repulsive:           11.316035

@<TRIPOS>MOLECULE
ZINC000626935317
 47 49 1 0 0
SMALL
USER_CHARGES


@<TRIPOS>ATOM
      1 C1        -10.4720    0.7211   59.7308 C.3     1  ZINC000626935317    0.0900
      2 N2         -9.7277    0.8663   58.4773 N.am    1  ZINC000626935317   -0.6200
      3 C3         -8.8788    1.8740   58.2116 C.2     1  ZINC000626935317    0.5200
      4 O4         -8.6278    2.7884   58.9677 O.2     1  ZINC000626935317   -0.5200
      5 C5         -8.2818    1.7015   56.8323 C.3     1  ZINC000626935317   -0.1500
      6 C6         -8.5765    0.2266   56.4734 C.3     1  ZINC000626935317   -0.1200
      7 H7         -7.7404   -0.4164   56.7483 H       1  ZINC000626935317    0.1200
      8 C8         -8.9053    0.0831   55.0097 C.2     1  ZINC000626935317    0.5300
      9 O9        -10.0098   -0.2844   54.6694 O.2     1  ZINC000626935317   -0.5200
     10 N10        -7.9718    0.3631   54.0788 N.am    1  ZINC000626935317   -0.7100
     11 C11        -8.2908    0.2219   52.6559 C.3     1  ZINC000626935317    0.1200
     12 C12        -8.3153    1.5578   51.8946 C.3     1  ZINC000626935317   -0.1600
     13 C13        -6.8146    1.3467   51.6337 C.3     1  ZINC000626935317    0.1200
     14 N14        -5.9532    1.9012   52.6810 N.am    1  ZINC000626935317   -1.1100
     15 S15        -5.3152    3.4199   52.5104 S.o2    1  ZINC000626935317    2.6100
     16 C16        -4.3390    3.6725   54.0183 C.3     1  ZINC000626935317   -0.6700
     17 O17        -4.4644    3.3173   51.3769 O.2     1  ZINC000626935317   -0.9500
     18 O18        -6.4486    4.2770   52.5006 O.2     1  ZINC000626935317   -0.9500
     19 C19        -7.0800   -0.1602   51.7882 C.3     1  ZINC000626935317   -0.1600
     20 C20        -9.8086   -0.0733   57.3527 C.3     1  ZINC000626935317    0.2000
     21 H21       -10.7254    0.1004   56.7892 H       1  ZINC000626935317    0.1100
     22 C22        -9.7627   -1.4961   57.8470 C.ar    1  ZINC000626935317   -0.1600
     23 C23        -8.8259   -1.8803   58.7940 C.ar    1  ZINC000626935317   -0.0500
     24 C24        -8.8210   -3.2000   59.2199 C.ar    1  ZINC000626935317   -0.1700
     25 C25        -9.7435   -4.0819   58.6903 C.ar    1  ZINC000626935317    0.1000
     26 N26       -10.6206   -3.6812   57.7906 N.ar    1  ZINC000626935317   -0.4800
     27 C27       -10.6578   -2.4333   57.3663 C.ar    1  ZINC000626935317    0.1200
     28 H28        -9.8802    0.1420   60.4397 H       1  ZINC000626935317    0.0600
     29 H29       -10.6764    1.7071   60.1483 H       1  ZINC000626935317    0.0800
     30 H30       -11.4131    0.2063   59.5371 H       1  ZINC000626935317    0.0700
     31 H31        -8.7650    2.3711   56.1210 H       1  ZINC000626935317    0.1100
     32 H32        -7.2069    1.8806   56.8568 H       1  ZINC000626935317    0.1200
     33 H33        -7.0887    0.6582   54.3509 H       1  ZINC000626935317    0.4000
     34 H34        -9.1685   -0.3995   52.4785 H       1  ZINC000626935317    0.1100
     35 H35        -8.9233    1.5338   50.9902 H       1  ZINC000626935317    0.1100
     36 H36        -8.5316    2.4177   52.5286 H       1  ZINC000626935317    0.0800
     37 H37        -6.5009    1.6356   50.6307 H       1  ZINC000626935317    0.1100
     38 H38        -5.7565    1.3787   53.4743 H       1  ZINC000626935317    0.4100
     39 H39        -3.5629    2.9098   54.0808 H       1  ZINC000626935317    0.1300
     40 H40        -3.8771    4.6595   53.9910 H       1  ZINC000626935317    0.1300
     41 H41        -4.9905    3.6003   54.8893 H       1  ZINC000626935317    0.1300
     42 H42        -6.2990   -0.6872   52.3362 H       1  ZINC000626935317    0.0900
     43 H43        -7.3502   -0.6538   50.8547 H       1  ZINC000626935317    0.1100
     44 H44        -8.1165   -1.1689   59.1901 H       1  ZINC000626935317    0.1400
     45 H45        -8.1051   -3.5343   59.9562 H       1  ZINC000626935317    0.1400
     46 H46        -9.7461   -5.1114   59.0165 H       1  ZINC000626935317    0.1600
     47 H47       -11.3905   -2.1420   56.6283 H       1  ZINC000626935317    0.1500
@<TRIPOS>BOND
     1     1     2    1
     2     1    28    1
     3     1    29    1
     4     1    30    1
     5     2    20    1
     6     2     3   am
     7     3     4    2
     8     3     5    1
     9     5     6    1
    10     5    31    1
    11     5    32    1
    12     6     7    1
    13     6     8    1
    14     6    20    1
    15     8     9    2
    16     8    10   am
    17    10    11    1
    18    10    33    1
    19    11    19    1
    20    11    12    1
    21    11    34    1
    22    12    13    1
    23    12    35    1
    24    12    36    1
    25    13    14    1
    26    13    19    1
    27    13    37    1
    28    14    15   am
    29    14    38    1
    30    15    16    1
    31    15    17    2
    32    15    18    2
    33    16    39    1
    34    16    40    1
    35    16    41    1
    36    19    42    1
    37    19    43    1
    38    20    21    1
    39    20    22    1
    40    22    27   ar
    41    22    23   ar
    42    23    24   ar
    43    23    44    1
    44    24    25   ar
    45    24    45    1
    46    25    26   ar
    47    25    46    1
    48    26    27   ar
    49    27    47    1
@<TRIPOS>SUBSTRUCTURE
     1 ZINC000626935317        1 TEMP              0 ****  ****    0 ROOT


##########                                Name:    ZINC000433961694
##########                DOCK_Rotatable_Bonds:                   7
##########                         Heavy_Atoms:                  29
##########                    Molecular_Weight:             413.472
##########                DOCK_Rotatable_Bonds:                   7
##########                       Formal_Charge:          0.00999992
##########                     HBond_Acceptors:                   8
##########                        HBond_Donors:                   0
##########                         Heavy_Atoms:                  29
##########                          Grid_Score:          -28.798471
##########                     Grid_vdw_energy:          -28.505112
##########                      Grid_es_energy:           -0.293359
##########           Internal_energy_repulsive:           13.177810

@<TRIPOS>MOLECULE
ZINC000433961694
 49 52 1 0 0
SMALL
USER_CHARGES


@<TRIPOS>ATOM
      1 C1         -9.1511    2.8665   51.0292 C.3     1  ZINC000433961694   -0.1000
      2 C2         -7.6696    2.7351   51.2714 C.2     1  ZINC000433961694    0.1600
      3 C3         -7.1173    2.7916   52.5092 C.2     1  ZINC000433961694   -0.3000
      4 C4         -7.8405    2.9828   53.7710 C.2     1  ZINC000433961694    0.6200
      5 O5         -7.8686    4.0803   54.2958 O.2     1  ZINC000433961694   -0.5100
      6 N6         -8.4738    1.9429   54.3489 N.am    1  ZINC000433961694   -0.6100
      7 C7         -8.5205    0.5660   53.8241 C.3     1  ZINC000433961694    0.1100
      8 C8         -8.7828   -0.3229   55.0654 C.3     1  ZINC000433961694   -0.1300
      9 C9         -9.7517    0.5677   55.8872 C.3     1  ZINC000433961694    0.0800
     10 H10       -10.7757    0.4540   55.5312 H       1  ZINC000433961694    0.1000
     11 O11        -9.6652    0.2579   57.2795 O.3     1  ZINC000433961694   -0.2900
     12 C12       -10.2102   -0.9175   57.6844 C.ar    1  ZINC000433961694    0.1700
     13 C13       -10.0727   -1.3526   59.0001 C.ar    1  ZINC000433961694   -0.2600
     14 C14       -10.6415   -2.5532   59.3725 C.ar    1  ZINC000433961694    0.1400
     15 N15       -11.3083   -3.2850   58.5000 N.ar    1  ZINC000433961694   -0.5100
     16 C16       -11.4601   -2.9065   57.2449 C.ar    1  ZINC000433961694    0.1400
     17 C17       -10.9262   -1.7161   56.7961 C.ar    1  ZINC000433961694   -0.2000
     18 C18        -9.2271    1.9923   55.6106 C.3     1  ZINC000433961694    0.0600
     19 S19        -5.3756    2.5934   52.3296 S.3     1  ZINC000433961694    0.2100
     20 C20        -5.5565    2.4562   50.6352 C.2     1  ZINC000433961694    0.0400
     21 C21        -4.4237    2.2478   49.6634 C.3     1  ZINC000433961694    0.1400
     22 O22        -3.5819    1.1925   50.1322 O.3     1  ZINC000433961694   -0.3000
     23 C23        -2.3301    1.1218   49.6066 C.ar    1  ZINC000433961694    0.1200
     24 C24        -1.3704    2.0544   49.9713 C.ar    1  ZINC000433961694   -0.1800
     25 C25        -0.0988    1.9814   49.4364 C.ar    1  ZINC000433961694   -0.1100
     26 C26         0.2177    0.9782   48.5362 C.ar    1  ZINC000433961694    0.0600
     27 F27         1.4616    0.9081   48.0135 F       1  ZINC000433961694   -0.1400
     28 C28        -0.7392    0.0463   48.1717 C.ar    1  ZINC000433961694   -0.1100
     29 C29        -2.0099    0.1136   48.7094 C.ar    1  ZINC000433961694   -0.1200
     30 N30        -6.8045    2.5511   50.3058 N.2     1  ZINC000433961694   -0.4500
     31 H31        -9.6146    1.8807   51.0690 H       1  ZINC000433961694    0.0800
     32 H32        -9.5894    3.5053   51.7960 H       1  ZINC000433961694    0.1000
     33 H33        -9.3210    3.3085   50.0474 H       1  ZINC000433961694    0.0800
     34 H34        -9.3325    0.4617   53.1045 H       1  ZINC000433961694    0.0800
     35 H35        -7.5683    0.3031   53.3635 H       1  ZINC000433961694    0.1000
     36 H36        -9.2602   -1.2604   54.7807 H       1  ZINC000433961694    0.1000
     37 H37        -7.8601   -0.5075   55.6157 H       1  ZINC000433961694    0.1000
     38 H38        -9.5279   -0.7586   59.7190 H       1  ZINC000433961694    0.1400
     39 H39       -10.5394   -2.8986   60.3907 H       1  ZINC000433961694    0.1600
     40 H40       -12.0130   -3.5342   56.5618 H       1  ZINC000433961694    0.1700
     41 H41       -11.0543   -1.4119   55.7677 H       1  ZINC000433961694    0.1400
     42 H42        -8.5762    2.3122   56.4243 H       1  ZINC000433961694    0.0900
     43 H43       -10.0646    2.6826   55.5096 H       1  ZINC000433961694    0.0800
     44 H44        -4.8275    1.9835   48.6860 H       1  ZINC000433961694    0.0900
     45 H45        -3.8428    3.1663   49.5801 H       1  ZINC000433961694    0.1000
     46 H46        -1.6173    2.8375   50.6728 H       1  ZINC000433961694    0.1400
     47 H47         0.6487    2.7075   49.7202 H       1  ZINC000433961694    0.1400
     48 H48        -0.4909   -0.7360   47.4696 H       1  ZINC000433961694    0.1500
     49 H49        -2.7562   -0.6135   48.4249 H       1  ZINC000433961694    0.1400
@<TRIPOS>BOND
     1     1     2    1
     2     1    31    1
     3     1    32    1
     4     1    33    1
     5     2    30    1
     6     2     3    2
     7     3     4    1
     8     3    19    1
     9     4     5    2
    10     4     6   am
    11     6    18    1
    12     6     7    1
    13     7     8    1
    14     7    34    1
    15     7    35    1
    16     8     9    1
    17     8    36    1
    18     8    37    1
    19     9    10    1
    20     9    11    1
    21     9    18    1
    22    11    12    1
    23    12    17   ar
    24    12    13   ar
    25    13    14   ar
    26    13    38    1
    27    14    15   ar
    28    14    39    1
    29    15    16   ar
    30    16    17   ar
    31    16    40    1
    32    17    41    1
    33    18    42    1
    34    18    43    1
    35    19    20    1
    36    20    21    1
    37    20    30    2
    38    21    22    1
    39    21    44    1
    40    21    45    1
    41    22    23    1
    42    23    29   ar
    43    23    24   ar
    44    24    25   ar
    45    24    46    1
    46    25    26   ar
    47    25    47    1
    48    26    27    1
    49    26    28   ar
    50    28    29   ar
    51    28    48    1
    52    29    49    1
@<TRIPOS>SUBSTRUCTURE
     1 ZINC000433961694        1 TEMP              0 ****  ****    0 ROOT


##########                                Name:    ZINC000279974681
##########                DOCK_Rotatable_Bonds:                   4
##########                         Heavy_Atoms:                  23
##########                    Molecular_Weight:              338.79
##########                DOCK_Rotatable_Bonds:                   4
##########                       Formal_Charge:           0.0100008
##########                     HBond_Acceptors:                   7
##########                        HBond_Donors:                   1
##########                         Heavy_Atoms:                  23
##########                          Grid_Score:          -28.797144
##########                     Grid_vdw_energy:          -30.125633
##########                      Grid_es_energy:            1.328490
##########           Internal_energy_repulsive:            8.313653

@<TRIPOS>MOLECULE
ZINC000279974681
 42 45 1 0 0
SMALL
USER_CHARGES


@<TRIPOS>ATOM
      1 C1         -8.4657    1.4541   55.9771 C.3     1  ZINC000279974681   -0.1400
      2 C2         -8.9763    0.7523   57.2371 C.3     1  ZINC000279974681    0.0700
      3 H3         -9.8754    1.2544   57.5944 H       1  ZINC000279974681    0.0600
      4 C4         -7.8961    0.8014   58.3238 C.3     1  ZINC000279974681    0.1000
      5 N5         -8.3340   -0.0365   59.4515 N.am    1  ZINC000279974681   -0.6300
      6 C6         -8.3254    0.4383   60.7129 C.2     1  ZINC000279974681    0.7100
      7 O7         -7.9521    1.5745   60.9323 O.2     1  ZINC000279974681   -0.5600
      8 N8         -8.7307   -0.3464   61.7310 N.am    1  ZINC000279974681   -0.6700
      9 C9         -8.7216    0.1475   63.0431 C.ar    1  ZINC000279974681    0.2000
     10 C10        -7.6968   -0.2040   63.9100 C.ar    1  ZINC000279974681   -0.1200
     11 C11        -7.6880    0.2846   65.2060 C.ar    1  ZINC000279974681    0.0700
     12 C12        -8.7085    1.1283   65.6371 C.ar    1  ZINC000279974681    0.0200
     13 C13        -9.7308    1.4770   64.7690 C.ar    1  ZINC000279974681   -0.0700
     14 C14        -9.7358    0.9937   63.4738 C.ar    1  ZINC000279974681   -0.0700
     15 Cl15      -11.0183    1.4325   62.3892 Cl      1  ZINC000279974681   -0.0500
     16 O16        -8.4727    1.4680   66.9391 O.3     1  ZINC000279974681   -0.3000
     17 C17        -7.5227    0.5002   67.4227 C.3     1  ZINC000279974681    0.2100
     18 O18        -6.8130    0.0956   66.2370 O.3     1  ZINC000279974681   -0.3000
     19 C19        -8.7821   -1.4077   59.1613 C.3     1  ZINC000279974681    0.0800
     20 C20        -9.8190   -1.3491   58.0337 C.3     1  ZINC000279974681    0.1100
     21 H21       -10.7215   -0.8555   58.3944 H       1  ZINC000279974681    0.0700
     22 C22       -10.1604   -2.7695   57.5791 C.3     1  ZINC000279974681   -0.1600
     23 C23       -11.6323   -3.0916   57.3130 C.3     1  ZINC000279974681   -0.1700
     24 C24       -10.6562   -2.9517   56.1431 C.3     1  ZINC000279974681   -0.1600
     25 O25        -9.2793   -0.6116   56.9344 O.3     1  ZINC000279974681   -0.3600
     26 H26        -9.2335    1.4173   55.2042 H       1  ZINC000279974681    0.0700
     27 H27        -8.2331    2.4935   56.2090 H       1  ZINC000279974681    0.0800
     28 H28        -7.5666    0.9515   55.6203 H       1  ZINC000279974681    0.0700
     29 H29        -6.9567    0.4185   57.9252 H       1  ZINC000279974681    0.0800
     30 H30        -7.7609    1.8291   58.6608 H       1  ZINC000279974681    0.1100
     31 H31        -9.0285   -1.2528   61.5559 H       1  ZINC000279974681    0.4100
     32 H32        -6.9062   -0.8588   63.5742 H       1  ZINC000279974681    0.1800
     33 H33       -10.5224    2.1311   65.1035 H       1  ZINC000279974681    0.1500
     34 H34        -6.8412    0.9578   68.1397 H       1  ZINC000279974681    0.1400
     35 H35        -8.0368   -0.3504   67.8704 H       1  ZINC000279974681    0.0900
     36 H36        -7.9318   -2.0130   58.8470 H       1  ZINC000279974681    0.0900
     37 H37        -9.2334   -1.8429   60.0529 H       1  ZINC000279974681    0.0900
     38 H38        -9.5403   -3.5602   58.0015 H       1  ZINC000279974681    0.1100
     39 H39       -11.9808   -4.0943   57.5605 H       1  ZINC000279974681    0.1000
     40 H40       -12.3574   -2.2915   57.4618 H       1  ZINC000279974681    0.1000
     41 H41       -10.7391   -2.0596   55.5224 H       1  ZINC000279974681    0.1000
     42 H42       -10.3625   -3.8623   55.6210 H       1  ZINC000279974681    0.1000
@<TRIPOS>BOND
     1     1     2    1
     2     1    26    1
     3     1    27    1
     4     1    28    1
     5     2     3    1
     6     2    25    1
     7     2     4    1
     8     4     5    1
     9     4    29    1
    10     4    30    1
    11     5     6   am
    12     5    19    1
    13     6     7    2
    14     6     8   am
    15     8     9    1
    16     8    31    1
    17     9    14   ar
    18     9    10   ar
    19    10    11   ar
    20    10    32    1
    21    11    18    1
    22    11    12   ar
    23    12    13   ar
    24    12    16    1
    25    13    14   ar
    26    13    33    1
    27    14    15    1
    28    16    17    1
    29    17    18    1
    30    17    34    1
    31    17    35    1
    32    19    20    1
    33    19    36    1
    34    19    37    1
    35    20    21    1
    36    20    22    1
    37    20    25    1
    38    22    24    1
    39    22    23    1
    40    22    38    1
    41    23    24    1
    42    23    39    1
    43    23    40    1
    44    24    41    1
    45    24    42    1
@<TRIPOS>SUBSTRUCTURE
     1 ZINC000279974681        1 TEMP              0 ****  ****    0 ROOT


##########                                Name:    ZINC000446721380
##########                DOCK_Rotatable_Bonds:                   8
##########                         Heavy_Atoms:                  26
##########                    Molecular_Weight:             419.318
##########                DOCK_Rotatable_Bonds:                   8
##########                       Formal_Charge:           0.0199992
##########                     HBond_Acceptors:                   5
##########                        HBond_Donors:                   2
##########                         Heavy_Atoms:                  26
##########                          Grid_Score:          -28.797050
##########                     Grid_vdw_energy:          -28.136852
##########                      Grid_es_energy:           -0.660199
##########           Internal_energy_repulsive:           10.892084

@<TRIPOS>MOLECULE
ZINC000446721380
 49 51 1 0 0
SMALL
USER_CHARGES


@<TRIPOS>ATOM
      1 C1         -4.1811    3.1702   51.0817 C.3     1  ZINC000446721380   -0.1200
      2 C2         -5.3421    2.2516   51.3636 C.ar    1  ZINC000446721380   -0.0300
      3 C3         -5.9037    1.5138   50.3383 C.ar    1  ZINC000446721380   -0.1600
      4 C4         -6.9691    0.6700   50.5938 C.ar    1  ZINC000446721380   -0.0500
      5 C5         -7.4748    0.5624   51.8746 C.ar    1  ZINC000446721380   -0.1500
      6 C6         -8.6355   -0.3577   52.1523 C.3     1  ZINC000446721380    0.1900
      7 N7         -9.8924    0.3592   51.9240 N.am    1  ZINC000446721380   -0.7300
      8 C8        -11.0158   -0.0315   52.5580 C.2     1  ZINC000446721380    0.7100
      9 O9        -10.9857   -0.9781   53.3205 O.2     1  ZINC000446721380   -0.5700
     10 N10       -12.1726    0.6271   52.3467 N.am    1  ZINC000446721380   -0.6900
     11 C11       -13.3394    0.2213   53.0051 C.ar    1  ZINC000446721380    0.2000
     12 C12       -13.3535    0.1070   54.3885 C.ar    1  ZINC000446721380   -0.1200
     13 C13       -14.5067   -0.2933   55.0355 C.ar    1  ZINC000446721380   -0.0800
     14 C14       -15.6463   -0.5801   54.3071 C.ar    1  ZINC000446721380   -0.1300
     15 C15       -15.6360   -0.4678   52.9286 C.ar    1  ZINC000446721380   -0.0700
     16 C16       -14.4877   -0.0625   52.2758 C.ar    1  ZINC000446721380   -0.1300
     17 Br17      -14.4744    0.0914   50.3912 Br      1  ZINC000446721380   -0.0500
     18 C18        -6.9127    1.3019   52.9054 C.ar    1  ZINC000446721380    0.1500
     19 O19        -7.4082    1.1975   54.1666 O.3     1  ZINC000446721380   -0.3100
     20 C20        -8.4873    2.0675   54.5137 C.3     1  ZINC000446721380    0.0700
     21 C21        -8.6848    2.0548   56.0309 C.3     1  ZINC000446721380   -0.1200
     22 H22        -9.5897    2.5990   56.3014 H       1  ZINC000446721380    0.1000
     23 C23        -7.4527    2.6645   56.7428 C.3     1  ZINC000446721380   -0.1500
     24 C24        -7.2824    1.7218   57.9614 C.3     1  ZINC000446721380    0.0500
     25 O25        -7.6220    0.4223   57.4319 O.3     1  ZINC000446721380   -0.3800
     26 C26        -8.7494    0.6069   56.5544 C.3     1  ZINC000446721380    0.0500
     27 C27        -5.8406    2.1434   52.6476 C.ar    1  ZINC000446721380   -0.2100
     28 H28        -3.2466    2.6225   51.2031 H       1  ZINC000446721380    0.0800
     29 H29        -4.2533    3.5440   50.0603 H       1  ZINC000446721380    0.0700
     30 H30        -4.2039    4.0087   51.7779 H       1  ZINC000446721380    0.0700
     31 H31        -5.5100    1.5968   49.3361 H       1  ZINC000446721380    0.1300
     32 H32        -7.4063    0.0949   49.7910 H       1  ZINC000446721380    0.1300
     33 H33        -8.5830   -1.2198   51.4873 H       1  ZINC000446721380    0.0800
     34 H34        -8.5923   -0.6947   53.1880 H       1  ZINC000446721380    0.0800
     35 H35        -9.9162    1.1152   51.3167 H       1  ZINC000446721380    0.4000
     36 H36       -12.1966    1.3823   51.7384 H       1  ZINC000446721380    0.4100
     37 H37       -12.4638    0.3305   54.9584 H       1  ZINC000446721380    0.1500
     38 H38       -14.5179   -0.3827   56.1118 H       1  ZINC000446721380    0.1300
     39 H39       -16.5463   -0.8928   54.8154 H       1  ZINC000446721380    0.1300
     40 H40       -16.5276   -0.6933   52.3624 H       1  ZINC000446721380    0.1400
     41 H41        -8.2566    3.0811   54.1859 H       1  ZINC000446721380    0.0700
     42 H42        -9.4004    1.7266   54.0256 H       1  ZINC000446721380    0.0700
     43 H43        -6.5742    2.6295   56.0983 H       1  ZINC000446721380    0.0800
     44 H44        -7.6558    3.6854   57.0661 H       1  ZINC000446721380    0.0900
     45 H45        -6.2517    1.7347   58.3155 H       1  ZINC000446721380    0.1000
     46 H46        -7.9678    2.0014   58.7616 H       1  ZINC000446721380    0.0600
     47 H47        -9.6771    0.4496   57.1046 H       1  ZINC000446721380    0.0600
     48 H48        -8.6879   -0.0918   55.7200 H       1  ZINC000446721380    0.0900
     49 H49        -5.4015    2.7200   53.4483 H       1  ZINC000446721380    0.1300
@<TRIPOS>BOND
     1     1     2    1
     2     1    28    1
     3     1    29    1
     4     1    30    1
     5     2    27   ar
     6     2     3   ar
     7     3     4   ar
     8     3    31    1
     9     4     5   ar
    10     4    32    1
    11     5     6    1
    12     5    18   ar
    13     6     7    1
    14     6    33    1
    15     6    34    1
    16     7     8   am
    17     7    35    1
    18     8     9    2
    19     8    10   am
    20    10    11    1
    21    10    36    1
    22    11    16   ar
    23    11    12   ar
    24    12    13   ar
    25    12    37    1
    26    13    14   ar
    27    13    38    1
    28    14    15   ar
    29    14    39    1
    30    15    16   ar
    31    15    40    1
    32    16    17    1
    33    18    19    1
    34    18    27   ar
    35    19    20    1
    36    20    21    1
    37    20    41    1
    38    20    42    1
    39    21    22    1
    40    21    26    1
    41    21    23    1
    42    23    24    1
    43    23    43    1
    44    23    44    1
    45    24    25    1
    46    24    45    1
    47    24    46    1
    48    25    26    1
    49    26    47    1
    50    26    48    1
    51    27    49    1
@<TRIPOS>SUBSTRUCTURE
     1 ZINC000446721380        1 TEMP              0 ****  ****    0 ROOT


##########                                Name:    ZINC000611836474
##########                DOCK_Rotatable_Bonds:                   7
##########                         Heavy_Atoms:                  22
##########                    Molecular_Weight:             366.258
##########                DOCK_Rotatable_Bonds:                   7
##########                       Formal_Charge:          -0.0300004
##########                     HBond_Acceptors:                   5
##########                        HBond_Donors:                   1
##########                         Heavy_Atoms:                  22
##########                          Grid_Score:          -28.759836
##########                     Grid_vdw_energy:          -27.942446
##########                      Grid_es_energy:           -0.817391
##########           Internal_energy_repulsive:            8.114847

@<TRIPOS>MOLECULE
ZINC000611836474
 42 43 1 0 0
SMALL
USER_CHARGES


@<TRIPOS>ATOM
      1 C1         -7.0551   -0.1785   51.7459 C.3     1  ZINC000611836474   -0.1500
      2 C2         -7.3288    0.9979   52.6853 C.3     1  ZINC000611836474   -0.1400
      3 C3         -8.8380    1.1512   52.8842 C.3     1  ZINC000611836474    0.1300
      4 N4         -9.3525   -0.0025   53.6261 N.pl3   1  ZINC000611836474   -0.3900
      5 N5        -10.1327   -1.0398   53.0995 N.2     1  ZINC000611836474   -0.2900
      6 C6        -10.3980   -1.8857   54.0619 C.2     1  ZINC000611836474    0.0600
      7 C7         -9.7977   -1.4195   55.2346 C.2     1  ZINC000611836474   -0.2800
      8 C8         -9.1532   -0.2575   54.9394 C.2     1  ZINC000611836474    0.3000
      9 N9         -8.4263    0.5312   55.8309 N.am    1  ZINC000611836474   -0.6500
     10 C10        -9.0597    1.1781   56.8293 C.2     1  ZINC000611836474    0.5200
     11 O11       -10.2617    1.0731   56.9535 O.2     1  ZINC000611836474   -0.4700
     12 C12        -8.2745    2.0317   57.7916 C.3     1  ZINC000611836474    0.0700
     13 H13        -8.9616    2.6249   58.3950 H       1  ZINC000611836474    0.1100
     14 C14        -7.3487    2.9641   57.0079 C.3     1  ZINC000611836474   -0.1800
     15 O15        -7.4939    1.1924   58.6450 O.3     1  ZINC000611836474   -0.2700
     16 C16        -7.8722    1.1151   59.9482 C.ar    1  ZINC000611836474    0.1500
     17 C17        -7.8279    2.2439   60.7525 C.ar    1  ZINC000611836474   -0.2000
     18 C18        -8.2129    2.1629   62.0772 C.ar    1  ZINC000611836474   -0.0600
     19 C19        -8.6417    0.9577   62.6014 C.ar    1  ZINC000611836474   -0.1100
     20 C20        -9.0604    0.8725   64.0465 C.3     1  ZINC000611836474   -0.1100
     21 C21        -8.6875   -0.1696   61.8020 C.ar    1  ZINC000611836474   -0.0500
     22 C22        -8.3091   -0.0928   60.4750 C.ar    1  ZINC000611836474   -0.1200
     23 Br23       -8.3718   -1.6346   59.3820 Br      1  ZINC000611836474   -0.0300
     24 H24        -5.9799   -0.2876   51.6041 H       1  ZINC000611836474    0.0600
     25 H25        -7.4589   -1.0925   52.1811 H       1  ZINC000611836474    0.0600
     26 H26        -7.5316    0.0070   50.7832 H       1  ZINC000611836474    0.0600
     27 H27        -6.8523    0.8125   53.6479 H       1  ZINC000611836474    0.0800
     28 H28        -6.9249    1.9119   52.2500 H       1  ZINC000611836474    0.0600
     29 H29        -9.0396    2.0635   53.4457 H       1  ZINC000611836474    0.0800
     30 H30        -9.3288    1.2066   51.9125 H       1  ZINC000611836474    0.1000
     31 H31       -10.9815   -2.7894   53.9664 H       1  ZINC000611836474    0.1900
     32 H32        -9.8355   -1.8977   56.2022 H       1  ZINC000611836474    0.1700
     33 H33        -7.4648    0.6141   55.7325 H       1  ZINC000611836474    0.4100
     34 H34        -7.9442    3.6043   56.3569 H       1  ZINC000611836474    0.0800
     35 H35        -6.7808    3.5814   57.7039 H       1  ZINC000611836474    0.0800
     36 H36        -6.6617    2.3709   56.4044 H       1  ZINC000611836474    0.0800
     37 H37        -7.4923    3.1857   60.3439 H       1  ZINC000611836474    0.1400
     38 H38        -8.1784    3.0419   62.7037 H       1  ZINC000611836474    0.1300
     39 H39       -10.1274    1.0799   64.1285 H       1  ZINC000611836474    0.0700
     40 H40        -8.8545   -0.1282   64.4261 H       1  ZINC000611836474    0.0700
     41 H41        -8.5022    1.6046   64.6303 H       1  ZINC000611836474    0.0700
     42 H42        -9.0229   -1.1100   62.2138 H       1  ZINC000611836474    0.1400
@<TRIPOS>BOND
     1     1     2    1
     2     1    24    1
     3     1    25    1
     4     1    26    1
     5     2     3    1
     6     2    27    1
     7     2    28    1
     8     3     4    1
     9     3    29    1
    10     3    30    1
    11     4     8    1
    12     4     5    1
    13     5     6    2
    14     6     7    1
    15     6    31    1
    16     7     8    2
    17     7    32    1
    18     8     9    1
    19     9    10   am
    20     9    33    1
    21    10    11    2
    22    10    12    1
    23    12    13    1
    24    12    14    1
    25    12    15    1
    26    14    34    1
    27    14    35    1
    28    14    36    1
    29    15    16    1
    30    16    22   ar
    31    16    17   ar
    32    17    18   ar
    33    17    37    1
    34    18    19   ar
    35    18    38    1
    36    19    20    1
    37    19    21   ar
    38    20    39    1
    39    20    40    1
    40    20    41    1
    41    21    22   ar
    42    21    42    1
    43    22    23    1
@<TRIPOS>SUBSTRUCTURE
     1 ZINC000611836474        1 TEMP              0 ****  ****    0 ROOT


##########                                Name:    ZINC000986832075
##########                DOCK_Rotatable_Bonds:                   7
##########                         Heavy_Atoms:                  25
##########                    Molecular_Weight:             347.433
##########                DOCK_Rotatable_Bonds:                   7
##########                       Formal_Charge:          -0.0200006
##########                     HBond_Acceptors:                   6
##########                        HBond_Donors:                   1
##########                         Heavy_Atoms:                  25
##########                          Grid_Score:          -28.755512
##########                     Grid_vdw_energy:          -28.183174
##########                      Grid_es_energy:           -0.572338
##########           Internal_energy_repulsive:           39.167377

@<TRIPOS>MOLECULE
ZINC000986832075
 51 53 1 0 0
SMALL
USER_CHARGES


@<TRIPOS>ATOM
      1 C1        -11.6966    0.4321   52.3936 C.3     1  ZINC000986832075   -0.1700
      2 C2        -10.5380   -0.2846   53.0901 C.3     1  ZINC000986832075    0.1500
      3 H3        -10.3596   -1.2438   52.6044 H       1  ZINC000986832075    0.0900
      4 N4         -9.3302    0.5397   53.0018 N.am    1  ZINC000986832075   -0.7200
      5 C5         -8.3960    0.2686   52.0689 C.2     1  ZINC000986832075    0.5600
      6 O6         -8.5563   -0.6588   51.3000 O.2     1  ZINC000986832075   -0.5100
      7 C7         -7.1750    1.1002   51.9809 C.ar    1  ZINC000986832075   -0.1300
      8 C8         -6.3866    1.1001   50.8256 C.ar    1  ZINC000986832075   -0.1100
      9 C9         -5.2554    1.8912   50.7862 C.ar    1  ZINC000986832075    0.0900
     10 N10        -4.9140    2.6390   51.8169 N.ar    1  ZINC000986832075   -0.4400
     11 C11        -5.6260    2.6708   52.9250 C.ar    1  ZINC000986832075    0.0700
     12 C12        -6.7793    1.9142   53.0502 C.ar    1  ZINC000986832075    0.1100
     13 F13        -7.5045    1.9517   54.1893 F       1  ZINC000986832075   -0.1000
     14 C14       -10.8914   -0.5155   54.5608 C.3     1  ZINC000986832075   -0.1000
     15 C15       -10.6239   -1.9775   54.9258 C.3     1  ZINC000986832075   -0.1300
     16 C16       -11.0113   -2.2134   56.3891 C.3     1  ZINC000986832075    0.1100
     17 N17       -10.2987   -1.2415   57.2294 N.am    1  ZINC000986832075   -0.6100
     18 C18        -9.5527   -1.6533   58.2737 C.2     1  ZINC000986832075    0.5200
     19 O19        -9.4649   -2.8360   58.5272 O.2     1  ZINC000986832075   -0.5300
     20 C20        -8.8278   -0.6440   59.1262 C.3     1  ZINC000986832075   -0.0800
     21 H21        -8.2658    0.0359   58.4858 H       1  ZINC000986832075    0.0900
     22 C22        -7.8653   -1.3698   60.0685 C.3     1  ZINC000986832075   -0.1400
     23 C23        -9.8431    0.1522   59.9486 C.3     1  ZINC000986832075   -0.1400
     24 C24        -9.8402   -0.0527   61.4649 C.3     1  ZINC000986832075   -0.1800
     25 C25        -9.3027    1.2494   60.8677 C.3     1  ZINC000986832075   -0.1700
     26 C26       -10.4146    0.1879   56.9096 C.3     1  ZINC000986832075    0.1000
     27 C27       -10.0338    0.3968   55.4406 C.3     1  ZINC000986832075   -0.1300
     28 H28       -11.4448    0.5965   51.3459 H       1  ZINC000986832075    0.0600
     29 H29       -12.5953   -0.1813   52.4594 H       1  ZINC000986832075    0.0700
     30 H30       -11.8751    1.3913   52.8794 H       1  ZINC000986832075    0.0600
     31 H31        -9.2027    1.2808   53.6147 H       1  ZINC000986832075    0.4000
     32 H32        -6.6584    0.4901   49.9769 H       1  ZINC000986832075    0.1500
     33 H33        -4.6411    1.8970   49.8980 H       1  ZINC000986832075    0.1700
     34 H34        -5.3084    3.2981   53.7448 H       1  ZINC000986832075    0.1800
     35 H35       -11.9454   -0.2885   54.7210 H       1  ZINC000986832075    0.0800
     36 H36       -11.2175   -2.6275   54.2829 H       1  ZINC000986832075    0.0700
     37 H37        -9.5653   -2.1986   54.7895 H       1  ZINC000986832075    0.0800
     38 H38       -12.0865   -2.0805   56.5083 H       1  ZINC000986832075    0.0700
     39 H39       -10.7312   -3.2250   56.6827 H       1  ZINC000986832075    0.0900
     40 H40        -8.4143   -2.1128   60.6469 H       1  ZINC000986832075    0.0600
     41 H41        -7.0893   -1.8647   59.4846 H       1  ZINC000986832075    0.0600
     42 H42        -7.4066   -0.6488   60.7453 H       1  ZINC000986832075    0.0700
     43 H43       -10.8045    0.3280   59.4660 H       1  ZINC000986832075    0.1100
     44 H44       -10.7999   -0.0117   61.9800 H       1  ZINC000986832075    0.1000
     45 H45        -9.1150   -0.7546   61.8765 H       1  ZINC000986832075    0.0900
     46 H46        -8.2239    1.4041   60.8866 H       1  ZINC000986832075    0.0900
     47 H47        -9.9088    2.1471   60.9902 H       1  ZINC000986832075    0.1000
     48 H48       -11.4411    0.5165   57.0713 H       1  ZINC000986832075    0.0700
     49 H49        -9.7406    0.7607   57.5468 H       1  ZINC000986832075    0.0900
     50 H50        -8.9808    0.1533   55.2994 H       1  ZINC000986832075    0.0800
     51 H51       -10.2075    1.4368   55.1641 H       1  ZINC000986832075    0.0800
@<TRIPOS>BOND
     1     1     2    1
     2     1    28    1
     3     1    29    1
     4     1    30    1
     5     2     3    1
     6     2     4    1
     7     2    14    1
     8     4     5   am
     9     4    31    1
    10     5     6    2
    11     5     7    1
    12     7    12   ar
    13     7     8   ar
    14     8     9   ar
    15     8    32    1
    16     9    10   ar
    17     9    33    1
    18    10    11   ar
    19    11    12   ar
    20    11    34    1
    21    12    13    1
    22    14    27    1
    23    14    15    1
    24    14    35    1
    25    15    16    1
    26    15    36    1
    27    15    37    1
    28    16    17    1
    29    16    38    1
    30    16    39    1
    31    17    18   am
    32    17    26    1
    33    18    19    2
    34    18    20    1
    35    20    21    1
    36    20    22    1
    37    20    23    1
    38    22    40    1
    39    22    41    1
    40    22    42    1
    41    23    25    1
    42    23    24    1
    43    23    43    1
    44    24    25    1
    45    24    44    1
    46    24    45    1
    47    25    46    1
    48    25    47    1
    49    26    27    1
    50    26    48    1
    51    26    49    1
    52    27    50    1
    53    27    51    1
@<TRIPOS>SUBSTRUCTURE
     1 ZINC000986832075        1 TEMP              0 ****  ****    0 ROOT


##########                                Name:    ZINC000763800048
##########                DOCK_Rotatable_Bonds:                   8
##########                         Heavy_Atoms:                  23
##########                    Molecular_Weight:             329.783
##########                DOCK_Rotatable_Bonds:                   8
##########                       Formal_Charge:           0.0199994
##########                     HBond_Acceptors:                   5
##########                        HBond_Donors:                   1
##########                         Heavy_Atoms:                  23
##########                          Grid_Score:          -28.668480
##########                     Grid_vdw_energy:          -28.463053
##########                      Grid_es_energy:           -0.205427
##########           Internal_energy_repulsive:           11.906179

@<TRIPOS>MOLECULE
ZINC000763800048
 39 40 1 0 0
SMALL
USER_CHARGES


@<TRIPOS>ATOM
      1 C1        -13.9843   -4.3725   56.4731 C.3     1  ZINC000763800048    0.0400
      2 O2        -14.9894   -4.7553   57.4486 O.3     1  ZINC000763800048   -0.3600
      3 C3        -15.4006   -3.8064   58.3043 C.2     1  ZINC000763800048    0.4600
      4 O4        -15.9225   -4.1193   59.3481 O.2     1  ZINC000763800048   -0.4900
      5 C5        -15.2116   -2.3509   57.9629 C.3     1  ZINC000763800048   -0.0700
      6 C6        -13.8589   -1.8934   58.4450 C.ar    1  ZINC000763800048   -0.0600
      7 C7        -13.5299   -2.0022   59.7835 C.ar    1  ZINC000763800048   -0.1200
      8 C8        -12.2896   -1.5836   60.2301 C.ar    1  ZINC000763800048   -0.1000
      9 C9        -11.3754   -1.0559   59.3398 C.ar    1  ZINC000763800048   -0.1100
     10 C10       -11.7028   -0.9457   57.9942 C.ar    1  ZINC000763800048    0.1500
     11 N11       -10.7795   -0.4119   57.0900 N.am    1  ZINC000763800048   -0.6700
     12 C12       -10.1028   -1.2275   56.2574 C.2     1  ZINC000763800048    0.5500
     13 O13       -10.2954   -2.4288   56.2926 O.2     1  ZINC000763800048   -0.5200
     14 C14        -9.1364   -0.6688   55.3111 C.2     1  ZINC000763800048   -0.2100
     15 C15        -9.4857   -0.4821   54.0218 C.2     1  ZINC000763800048   -0.0100
     16 C16        -8.5145    0.0813   53.0706 C.ar    1  ZINC000763800048   -0.0800
     17 C17        -8.5966   -0.2373   51.7112 C.ar    1  ZINC000763800048   -0.0900
     18 C18        -7.6834    0.2941   50.8259 C.ar    1  ZINC000763800048   -0.1100
     19 C19        -6.6857    1.1414   51.2799 C.ar    1  ZINC000763800048   -0.0200
     20 Cl20       -5.5396    1.8054   50.1578 Cl      1  ZINC000763800048   -0.0600
     21 C21        -6.5985    1.4616   52.6251 C.ar    1  ZINC000763800048   -0.1100
     22 C22        -7.5083    0.9423   53.5208 C.ar    1  ZINC000763800048   -0.0800
     23 C23       -12.9472   -1.3714   57.5483 C.ar    1  ZINC000763800048   -0.1300
     24 H24       -13.7419   -5.2301   55.8455 H       1  ZINC000763800048    0.1000
     25 H25       -14.3704   -3.5649   55.8513 H       1  ZINC000763800048    0.0600
     26 H26       -13.0860   -4.0353   56.9902 H       1  ZINC000763800048    0.0600
     27 H27       -15.2756   -2.2197   56.8827 H       1  ZINC000763800048    0.1200
     28 H28       -15.9888   -1.7600   58.4475 H       1  ZINC000763800048    0.1200
     29 H29       -14.2429   -2.4145   60.4819 H       1  ZINC000763800048    0.1200
     30 H30       -12.0359   -1.6693   61.2764 H       1  ZINC000763800048    0.1300
     31 H31       -10.4072   -0.7290   59.6892 H       1  ZINC000763800048    0.1400
     32 H32       -10.6259    0.5455   57.0620 H       1  ZINC000763800048    0.4100
     33 H33        -8.1436   -0.4060   55.6450 H       1  ZINC000763800048    0.1300
     34 H34       -10.4782   -0.7461   53.6876 H       1  ZINC000763800048    0.1400
     35 H35        -9.3735   -0.8982   51.3560 H       1  ZINC000763800048    0.1400
     36 H36        -7.7457    0.0490   49.7759 H       1  ZINC000763800048    0.1400
     37 H37        -5.8181    2.1227   52.9719 H       1  ZINC000763800048    0.1400
     38 H38        -7.4394    1.1929   54.5690 H       1  ZINC000763800048    0.1400
     39 H39       -13.2046   -1.2874   56.5027 H       1  ZINC000763800048    0.1300
@<TRIPOS>BOND
     1     1     2    1
     2     1    24    1
     3     1    25    1
     4     1    26    1
     5     2     3    1
     6     3     4    2
     7     3     5    1
     8     5     6    1
     9     5    27    1
    10     5    28    1
    11     6    23   ar
    12     6     7   ar
    13     7     8   ar
    14     7    29    1
    15     8     9   ar
    16     8    30    1
    17     9    10   ar
    18     9    31    1
    19    10    11    1
    20    10    23   ar
    21    11    12   am
    22    11    32    1
    23    12    13    2
    24    12    14    1
    25    14    15    2
    26    14    33    1
    27    15    16    1
    28    15    34    1
    29    16    22   ar
    30    16    17   ar
    31    17    18   ar
    32    17    35    1
    33    18    19   ar
    34    18    36    1
    35    19    20    1
    36    19    21   ar
    37    21    22   ar
    38    21    37    1
    39    22    38    1
    40    23    39    1
@<TRIPOS>SUBSTRUCTURE
     1 ZINC000763800048        1 TEMP              0 ****  ****    0 ROOT


##########                                Name:    ZINC000753658424
##########                DOCK_Rotatable_Bonds:                   8
##########                         Heavy_Atoms:                  24
##########                    Molecular_Weight:             332.399
##########                DOCK_Rotatable_Bonds:                   8
##########                       Formal_Charge:        -9.16421e-07
##########                     HBond_Acceptors:                   6
##########                        HBond_Donors:                   3
##########                         Heavy_Atoms:                  24
##########                          Grid_Score:          -28.627502
##########                     Grid_vdw_energy:          -24.063232
##########                      Grid_es_energy:           -4.564270
##########           Internal_energy_repulsive:           17.966896

@<TRIPOS>MOLECULE
ZINC000753658424
 48 49 1 0 0
SMALL
USER_CHARGES


@<TRIPOS>ATOM
      1 C1         -8.8534    2.6212   57.2197 C.3     1  ZINC000753658424   -0.2000
      2 C2         -7.9960    1.7723   58.1227 C.2     1  ZINC000753658424    0.4400
      3 O3         -7.2892    0.9068   57.6502 O.2     1  ZINC000753658424   -0.4500
      4 C4         -8.0161    1.9922   59.5721 C.2     1  ZINC000753658424   -0.2500
      5 C5         -7.4458    3.0566   60.2528 C.2     1  ZINC000753658424    0.1000
      6 C6         -6.6899    4.2005   59.6272 C.3     1  ZINC000753658424   -0.1000
      7 N7         -7.6820    2.8951   61.5630 N.pl3   1  ZINC000753658424   -0.5300
      8 C8         -8.4020    1.7358   61.7566 C.2     1  ZINC000753658424   -0.0600
      9 C9         -8.8551    1.2121   63.0516 C.2     1  ZINC000753658424    0.5900
     10 O10       -10.0008    0.8247   63.1839 O.2     1  ZINC000753658424   -0.5200
     11 N11        -8.0018    1.1608   64.0936 N.am    1  ZINC000753658424   -0.7300
     12 C12        -8.4543    0.6399   65.3859 C.3     1  ZINC000753658424    0.0900
     13 C13        -7.2405    0.3339   66.2657 C.3     1  ZINC000753658424    0.1900
     14 H14        -6.5956   -0.3837   65.7584 H       1  ZINC000753658424    0.1300
     15 O15        -7.6802   -0.2167   67.5090 O.3     1  ZINC000753658424   -0.5500
     16 C16        -6.4730    1.6050   66.5227 C.2     1  ZINC000753658424   -0.0600
     17 C17        -6.9987    2.8413   66.5897 C.2     1  ZINC000753658424   -0.1800
     18 C18        -5.9280    3.7284   66.8462 C.2     1  ZINC000753658424   -0.2100
     19 C19        -4.8121    2.9809   66.9206 C.2     1  ZINC000753658424    0.0000
     20 C20        -3.4208    3.4980   67.1813 C.3     1  ZINC000753658424   -0.0800
     21 O21        -5.1491    1.6950   66.7298 O.3     1  ZINC000753658424   -0.1700
     22 C22        -8.6269    1.1612   60.5419 C.2     1  ZINC000753658424   -0.0100
     23 C23        -9.3755   -0.1203   60.2810 C.3     1  ZINC000753658424   -0.0500
     24 C24       -10.3764    0.0961   59.1441 C.3     1  ZINC000753658424   -0.1500
     25 C25        -8.3855   -1.2182   59.8868 C.3     1  ZINC000753658424   -0.1500
     26 H26        -8.6475    2.3679   56.1797 H       1  ZINC000753658424    0.0800
     27 H27        -9.9051    2.4356   57.4375 H       1  ZINC000753658424    0.1000
     28 H28        -8.6276    3.6740   57.3888 H       1  ZINC000753658424    0.0900
     29 H29        -7.3681    5.0379   59.4636 H       1  ZINC000753658424    0.0900
     30 H30        -5.8839    4.5103   60.2925 H       1  ZINC000753658424    0.0800
     31 H31        -6.2708    3.8805   58.6732 H       1  ZINC000753658424    0.0900
     32 H32        -7.3917    3.4992   62.2642 H       1  ZINC000753658424    0.4200
     33 H33        -7.0880    1.4686   63.9878 H       1  ZINC000753658424    0.4000
     34 H34        -9.0813    1.3836   65.8779 H       1  ZINC000753658424    0.0900
     35 H35        -9.0286   -0.2730   65.2289 H       1  ZINC000753658424    0.0800
     36 H36        -8.2594    0.3688   68.0156 H       1  ZINC000753658424    0.3900
     37 H37        -8.0389    3.1058   66.4700 H       1  ZINC000753658424    0.1500
     38 H38        -5.9934    4.8003   66.9602 H       1  ZINC000753658424    0.1500
     39 H39        -3.2311    3.5055   68.2547 H       1  ZINC000753658424    0.0800
     40 H40        -2.6946    2.8515   66.6887 H       1  ZINC000753658424    0.0800
     41 H41        -3.3303    4.5110   66.7893 H       1  ZINC000753658424    0.0900
     42 H42        -9.9095   -0.4193   61.1830 H       1  ZINC000753658424    0.1100
     43 H43        -9.8367    0.2772   58.2146 H       1  ZINC000753658424    0.0500
     44 H44       -11.0000   -0.7912   59.0353 H       1  ZINC000753658424    0.0600
     45 H45       -11.0054    0.9565   59.3727 H       1  ZINC000753658424    0.0600
     46 H46        -7.7224   -1.4279   60.7262 H       1  ZINC000753658424    0.0500
     47 H47        -8.9327   -2.1227   59.6213 H       1  ZINC000753658424    0.0600
     48 H48        -7.7960   -0.8861   59.0323 H       1  ZINC000753658424    0.0600
@<TRIPOS>BOND
     1     1     2    1
     2     1    26    1
     3     1    27    1
     4     1    28    1
     5     2     3    2
     6     2     4    1
     7     4    22    1
     8     4     5    2
     9     5     6    1
    10     5     7    1
    11     6    29    1
    12     6    30    1
    13     6    31    1
    14     7     8    1
    15     7    32    1
    16     8     9    1
    17     8    22    2
    18     9    10    2
    19     9    11   am
    20    11    12    1
    21    11    33    1
    22    12    13    1
    23    12    34    1
    24    12    35    1
    25    13    14    1
    26    13    15    1
    27    13    16    1
    28    15    36    1
    29    16    21    1
    30    16    17    2
    31    17    18    1
    32    17    37    1
    33    18    19    2
    34    18    38    1
    35    19    20    1
    36    19    21    1
    37    20    39    1
    38    20    40    1
    39    20    41    1
    40    22    23    1
    41    23    24    1
    42    23    25    1
    43    23    42    1
    44    24    43    1
    45    24    44    1
    46    24    45    1
    47    25    46    1
    48    25    47    1
    49    25    48    1
@<TRIPOS>SUBSTRUCTURE
     1 ZINC000753658424        1 TEMP              0 ****  ****    0 ROOT


##########                                Name:    ZINC001110536231
##########                DOCK_Rotatable_Bonds:                   8
##########                         Heavy_Atoms:                  24
##########                    Molecular_Weight:             329.442
##########                DOCK_Rotatable_Bonds:                   8
##########                       Formal_Charge:          -0.0400001
##########                     HBond_Acceptors:                   5
##########                        HBond_Donors:                   1
##########                         Heavy_Atoms:                  24
##########                          Grid_Score:          -28.623846
##########                     Grid_vdw_energy:          -28.220890
##########                      Grid_es_energy:           -0.402955
##########           Internal_energy_repulsive:           25.905022

@<TRIPOS>MOLECULE
ZINC001110536231
 51 53 1 0 0
SMALL
USER_CHARGES


@<TRIPOS>ATOM
      1 C1         -8.5204    4.7818   57.2191 C.3     1  ZINC001110536231   -0.1300
      2 C2         -8.0117    4.0813   58.4806 C.3     1  ZINC001110536231   -0.1000
      3 C3         -6.5693    3.6884   58.2901 C.2     1  ZINC001110536231   -0.0200
      4 C4         -5.4821    4.7229   58.4280 C.3     1  ZINC001110536231   -0.1300
      5 C5         -6.2558    2.4288   58.0004 C.2     1  ZINC001110536231   -0.2400
      6 C6         -7.3171    1.4191   57.8659 C.2     1  ZINC001110536231    0.5400
      7 O7         -7.8545    1.2414   56.7895 O.2     1  ZINC001110536231   -0.5300
      8 N8         -7.6938    0.6909   58.9356 N.am    1  ZINC001110536231   -0.7300
      9 C9         -8.7495   -0.3159   58.8012 C.3     1  ZINC001110536231    0.1100
     10 H10        -8.6614   -0.8378   57.8484 H       1  ZINC001110536231    0.1000
     11 C11       -10.1466    0.3375   58.9377 C.3     1  ZINC001110536231   -0.1600
     12 C12       -10.7555   -0.3626   60.1898 C.3     1  ZINC001110536231    0.0500
     13 H13       -11.5665    0.1746   60.6818 H       1  ZINC001110536231    0.1200
     14 C14       -11.0946   -1.8092   59.7192 C.3     1  ZINC001110536231   -0.1200
     15 C15        -9.7054   -2.4766   59.5711 C.3     1  ZINC001110536231   -0.1100
     16 C16        -8.6983   -1.3261   59.9869 C.3     1  ZINC001110536231    0.0400
     17 H17        -7.7082   -1.6576   60.2997 H       1  ZINC001110536231    0.1200
     18 N18        -9.5201   -0.5926   61.0208 N.3     1  ZINC001110536231   -0.4900
     19 C19        -8.8799    0.6741   61.4001 C.3     1  ZINC001110536231    0.0600
     20 C20        -9.0702    0.9107   62.8762 C.ar    1  ZINC001110536231    0.0100
     21 C21       -10.0280    1.8045   63.3342 C.ar    1  ZINC001110536231   -0.2100
     22 C22       -10.1767    1.9977   64.6934 C.ar    1  ZINC001110536231    0.1400
     23 N23        -9.4214    1.3447   65.5559 N.ar    1  ZINC001110536231   -0.5400
     24 C24        -8.4982    0.4849   65.1581 C.ar    1  ZINC001110536231    0.3200
     25 O25        -7.7439   -0.1653   66.0797 O.3     1  ZINC001110536231   -0.3100
     26 C26        -7.6785    0.4092   67.3865 C.3     1  ZINC001110536231    0.0400
     27 C27        -8.2972    0.2373   63.8064 C.ar    1  ZINC001110536231   -0.1700
     28 H28        -9.5636    5.0660   57.3569 H       1  ZINC001110536231    0.0500
     29 H29        -7.9224    5.6738   57.0326 H       1  ZINC001110536231    0.0700
     30 H30        -8.4375    4.1047   56.3690 H       1  ZINC001110536231    0.0400
     31 H31        -8.0945    4.7586   59.3307 H       1  ZINC001110536231    0.0900
     32 H32        -8.6097    3.1893   58.6670 H       1  ZINC001110536231    0.0600
     33 H33        -5.1453    4.7602   59.4640 H       1  ZINC001110536231    0.0800
     34 H34        -4.6444    4.4578   57.7830 H       1  ZINC001110536231    0.0700
     35 H35        -5.8702    5.6989   58.1367 H       1  ZINC001110536231    0.0700
     36 H36        -5.2221    2.1474   57.8640 H       1  ZINC001110536231    0.1200
     37 H37        -7.2660    0.8335   59.7944 H       1  ZINC001110536231    0.4000
     38 H38       -10.0536    1.4105   59.1054 H       1  ZINC001110536231    0.0700
     39 H39       -10.7519    0.1372   58.0537 H       1  ZINC001110536231    0.0800
     40 H40       -11.6911   -2.3271   60.4703 H       1  ZINC001110536231    0.0700
     41 H41       -11.6148   -1.7890   58.7616 H       1  ZINC001110536231    0.0700
     42 H42        -9.6133   -3.3254   60.2486 H       1  ZINC001110536231    0.0800
     43 H43        -9.5370   -2.7873   58.5400 H       1  ZINC001110536231    0.0700
     44 H44        -7.8148    0.6249   61.1743 H       1  ZINC001110536231    0.0900
     45 H45        -9.3328    1.4921   60.8398 H       1  ZINC001110536231    0.0700
     46 H46       -10.6502    2.3435   62.6350 H       1  ZINC001110536231    0.1300
     47 H47       -10.9204    2.6923   65.0550 H       1  ZINC001110536231    0.1600
     48 H48        -7.0447   -0.2080   68.0233 H       1  ZINC001110536231    0.1000
     49 H49        -7.2600    1.4135   67.3214 H       1  ZINC001110536231    0.0600
     50 H50        -8.6809    0.4601   67.8116 H       1  ZINC001110536231    0.0600
     51 H51        -7.5428   -0.4655   63.4851 H       1  ZINC001110536231    0.1400
@<TRIPOS>BOND
     1     1     2    1
     2     1    28    1
     3     1    29    1
     4     1    30    1
     5     2     3    1
     6     2    31    1
     7     2    32    1
     8     3     4    1
     9     3     5    2
    10     4    33    1
    11     4    34    1
    12     4    35    1
    13     5     6    1
    14     5    36    1
    15     6     7    2
    16     6     8   am
    17     8     9    1
    18     8    37    1
    19     9    10    1
    20     9    16    1
    21     9    11    1
    22    11    12    1
    23    11    38    1
    24    11    39    1
    25    12    13    1
    26    12    18    1
    27    12    14    1
    28    14    15    1
    29    14    40    1
    30    14    41    1
    31    15    16    1
    32    15    42    1
    33    15    43    1
    34    16    17    1
    35    16    18    1
    36    18    19    1
    37    19    20    1
    38    19    44    1
    39    19    45    1
    40    20    27   ar
    41    20    21   ar
    42    21    22   ar
    43    21    46    1
    44    22    23   ar
    45    22    47    1
    46    23    24   ar
    47    24    25    1
    48    24    27   ar
    49    25    26    1
    50    26    48    1
    51    26    49    1
    52    26    50    1
    53    27    51    1
@<TRIPOS>SUBSTRUCTURE
     1 ZINC001110536231        1 TEMP              0 ****  ****    0 ROOT


##########                                Name:    ZINC000517001504
##########                DOCK_Rotatable_Bonds:                   5
##########                         Heavy_Atoms:                  29
##########                    Molecular_Weight:             403.401
##########                DOCK_Rotatable_Bonds:                   5
##########                       Formal_Charge:          -0.0200002
##########                     HBond_Acceptors:                   7
##########                        HBond_Donors:                   0
##########                         Heavy_Atoms:                  29
##########                          Grid_Score:          -28.623558
##########                     Grid_vdw_energy:          -29.088079
##########                      Grid_es_energy:            0.464522
##########           Internal_energy_repulsive:           43.280510

@<TRIPOS>MOLECULE
ZINC000517001504
 49 52 1 0 0
SMALL
USER_CHARGES


@<TRIPOS>ATOM
      1 O1         -5.8581    2.2941   53.1552 O.2     1  ZINC000517001504   -0.5200
      2 C2         -6.7367    2.1125   52.3390 C.2     1  ZINC000517001504    0.5400
      3 N3         -7.7469    1.2636   52.6138 N.am    1  ZINC000517001504   -0.6100
      4 C4         -8.8270    1.0317   51.6417 C.3     1  ZINC000517001504    0.0600
      5 C5        -10.1697    1.2077   52.3600 C.3     1  ZINC000517001504    0.0500
      6 O6        -10.1861    0.3920   53.5339 O.3     1  ZINC000517001504   -0.3700
      7 C7         -9.1945    0.7409   54.5029 C.3     1  ZINC000517001504    0.1200
      8 H8         -9.3192    1.7844   54.7919 H       1  ZINC000517001504    0.0800
      9 C9         -9.3456   -0.1392   55.7169 C.ar    1  ZINC000517001504   -0.0600
     10 C10        -8.9637    0.3275   56.9608 C.ar    1  ZINC000517001504   -0.0900
     11 C11        -9.1023   -0.4797   58.0743 C.ar    1  ZINC000517001504   -0.0700
     12 C12        -9.6232   -1.7535   57.9441 C.ar    1  ZINC000517001504   -0.1800
     13 C13        -9.7738   -2.6338   59.1580 C.3     1  ZINC000517001504    0.5100
     14 F14        -9.0611   -3.8219   58.9637 F       1  ZINC000517001504   -0.1800
     15 F15        -9.2732   -1.9680   60.2819 F       1  ZINC000517001504   -0.1800
     16 F16       -11.1271   -2.9288   59.3551 F       1  ZINC000517001504   -0.1800
     17 C17       -10.0064   -2.2198   56.7004 C.ar    1  ZINC000517001504   -0.0700
     18 C18        -9.8714   -1.4110   55.5874 C.ar    1  ZINC000517001504   -0.1000
     19 C19        -7.7988    0.5367   53.8921 C.3     1  ZINC000517001504    0.0900
     20 C20        -6.7021    2.8408   51.0202 C.3     1  ZINC000517001504   -0.0600
     21 C21        -7.8241    3.8356   50.8704 C.ar    1  ZINC000517001504   -0.0700
     22 C22        -8.3350    4.1177   49.6173 C.ar    1  ZINC000517001504   -0.1200
     23 C23        -9.3643    5.0302   49.4800 C.ar    1  ZINC000517001504   -0.1100
     24 C24        -9.8829    5.6603   50.5957 C.ar    1  ZINC000517001504   -0.1100
     25 C25        -9.3725    5.3775   51.8489 C.ar    1  ZINC000517001504   -0.1100
     26 C26        -8.3462    4.4618   51.9867 C.ar    1  ZINC000517001504   -0.1000
     27 C27        -5.3177    3.4105   50.6657 C.3     1  ZINC000517001504   -0.1600
     28 C28        -5.0402    2.0833   49.9881 C.2     1  ZINC000517001504    0.3600
     29 O29        -4.0551    1.4412   49.7131 O.2     1  ZINC000517001504   -0.4100
     30 C30        -6.5351    1.9111   49.8058 C.3     1  ZINC000517001504   -0.1900
     31 H31        -8.7490    1.7522   50.8275 H       1  ZINC000517001504    0.1000
     32 H32        -8.7528    0.0192   51.2451 H       1  ZINC000517001504    0.0800
     33 H33       -10.2979    2.2530   52.6412 H       1  ZINC000517001504    0.0600
     34 H34       -10.9800    0.9066   51.6960 H       1  ZINC000517001504    0.1100
     35 H35        -8.5567    1.3227   57.0625 H       1  ZINC000517001504    0.1400
     36 H36        -8.8032   -0.1153   59.0461 H       1  ZINC000517001504    0.1400
     37 H37       -10.4137   -3.2148   56.5988 H       1  ZINC000517001504    0.1400
     38 H38       -10.1708   -1.7754   54.6158 H       1  ZINC000517001504    0.1400
     39 H39        -7.6237   -0.5259   53.7238 H       1  ZINC000517001504    0.0800
     40 H40        -7.0409    0.9316   54.5684 H       1  ZINC000517001504    0.1100
     41 H41        -7.9298    3.6255   48.7456 H       1  ZINC000517001504    0.1300
     42 H42        -9.7630    5.2512   48.5008 H       1  ZINC000517001504    0.1300
     43 H43       -10.6864    6.3737   50.4883 H       1  ZINC000517001504    0.1300
     44 H44        -9.7774    5.8699   52.7206 H       1  ZINC000517001504    0.1300
     45 H45        -7.9475    4.2408   52.9658 H       1  ZINC000517001504    0.1200
     46 H46        -5.3551    4.2542   49.9766 H       1  ZINC000517001504    0.1300
     47 H47        -4.6866    3.5988   51.5342 H       1  ZINC000517001504    0.1100
     48 H48        -6.8832    0.8934   49.9828 H       1  ZINC000517001504    0.1000
     49 H49        -6.9141    2.3341   48.8755 H       1  ZINC000517001504    0.1400
@<TRIPOS>BOND
     1     1     2    2
     2     2     3   am
     3     2    20    1
     4     3    19    1
     5     3     4    1
     6     4     5    1
     7     4    31    1
     8     4    32    1
     9     5     6    1
    10     5    33    1
    11     5    34    1
    12     6     7    1
    13     7     8    1
    14     7     9    1
    15     7    19    1
    16     9    18   ar
    17     9    10   ar
    18    10    11   ar
    19    10    35    1
    20    11    12   ar
    21    11    36    1
    22    12    13    1
    23    12    17   ar
    24    13    14    1
    25    13    15    1
    26    13    16    1
    27    17    18   ar
    28    17    37    1
    29    18    38    1
    30    19    39    1
    31    19    40    1
    32    20    30    1
    33    20    21    1
    34    20    27    1
    35    21    26   ar
    36    21    22   ar
    37    22    23   ar
    38    22    41    1
    39    23    24   ar
    40    23    42    1
    41    24    25   ar
    42    24    43    1
    43    25    26   ar
    44    25    44    1
    45    26    45    1
    46    27    28    1
    47    27    46    1
    48    27    47    1
    49    28    29    2
    50    28    30    1
    51    30    48    1
    52    30    49    1
@<TRIPOS>SUBSTRUCTURE
     1 ZINC000517001504        1 TEMP              0 ****  ****    0 ROOT


##########                                Name:    ZINC000680410869
##########                DOCK_Rotatable_Bonds:                   6
##########                         Heavy_Atoms:                  24
##########                    Molecular_Weight:             335.354
##########                DOCK_Rotatable_Bonds:                   6
##########                       Formal_Charge:        -1.04308e-07
##########                     HBond_Acceptors:                   7
##########                        HBond_Donors:                   0
##########                         Heavy_Atoms:                  24
##########                          Grid_Score:          -28.604540
##########                     Grid_vdw_energy:          -28.370888
##########                      Grid_es_energy:           -0.233653
##########           Internal_energy_repulsive:           10.430835

@<TRIPOS>MOLECULE
ZINC000680410869
 43 45 1 0 0
SMALL
USER_CHARGES


@<TRIPOS>ATOM
      1 O1        -10.5550   -1.2637   52.7311 O.2     1  ZINC000680410869   -0.5200
      2 C2         -9.9317   -0.7814   53.6567 C.2     1  ZINC000680410869    0.6100
      3 C3        -10.4412   -0.9106   55.0371 C.2     1  ZINC000680410869    0.0100
      4 N4        -10.1586   -1.8745   55.8906 N.2     1  ZINC000680410869   -0.2500
      5 N5        -10.7730   -1.6744   57.0010 N.pl3   1  ZINC000680410869   -0.3500
      6 C6        -10.6886   -2.5475   58.1743 C.3     1  ZINC000680410869    0.5000
      7 F7        -10.9814   -3.8630   57.7987 F       1  ZINC000680410869   -0.1600
      8 F8         -9.3958   -2.4910   58.7057 F       1  ZINC000680410869   -0.1700
      9 C9        -11.5071   -0.5432   56.9312 C.2     1  ZINC000680410869    0.0100
     10 C10       -11.3209   -0.0199   55.6969 C.2     1  ZINC000680410869   -0.1700
     11 N11        -8.7730   -0.1335   53.4240 N.am    1  ZINC000680410869   -0.6000
     12 C12        -7.9981    0.4533   54.5287 C.3     1  ZINC000680410869    0.0800
     13 C13        -7.6711    1.9076   54.1709 C.3     1  ZINC000680410869    0.0500
     14 O14        -7.0639    1.9490   52.8773 O.3     1  ZINC000680410869   -0.3700
     15 C15        -7.9063    1.4836   51.8201 C.3     1  ZINC000680410869    0.0800
     16 H16        -8.8252    2.0698   51.8019 H       1  ZINC000680410869    0.0600
     17 C17        -7.1781    1.6332   50.4829 C.3     1  ZINC000680410869   -0.1000
     18 C18        -6.5953    3.0436   50.3744 C.3     1  ZINC000680410869   -0.0800
     19 C19        -5.0969    2.9808   50.5231 C.ar    1  ZINC000680410869   -0.0800
     20 C20        -4.4673    3.7308   51.4989 C.ar    1  ZINC000680410869   -0.1200
     21 C21        -3.0929    3.6732   51.6353 C.ar    1  ZINC000680410869   -0.1200
     22 C22        -2.3482    2.8654   50.7963 C.ar    1  ZINC000680410869   -0.1300
     23 C23        -2.9781    2.1148   49.8212 C.ar    1  ZINC000680410869   -0.1200
     24 C24        -4.3528    2.1690   49.6876 C.ar    1  ZINC000680410869   -0.1200
     25 C25        -8.2425    0.0026   52.0582 C.3     1  ZINC000680410869    0.0600
     26 H26       -11.4052   -2.2163   58.9259 H       1  ZINC000680410869    0.1700
     27 H27       -12.1243   -0.1306   57.7156 H       1  ZINC000680410869    0.1900
     28 H28       -11.7566    0.8840   55.2975 H       1  ZINC000680410869    0.1700
     29 H29        -8.5864    0.4243   55.4458 H       1  ZINC000680410869    0.1000
     30 H30        -7.0737   -0.1075   54.6670 H       1  ZINC000680410869    0.0800
     31 H31        -8.5890    2.4953   54.1612 H       1  ZINC000680410869    0.0600
     32 H32        -6.9827    2.3184   54.9095 H       1  ZINC000680410869    0.1100
     33 H33        -6.3723    0.9015   50.4242 H       1  ZINC000680410869    0.0800
     34 H34        -7.8804    1.4664   49.6661 H       1  ZINC000680410869    0.0800
     35 H35        -6.8465    3.4668   49.4018 H       1  ZINC000680410869    0.0700
     36 H36        -7.0127    3.6708   51.1622 H       1  ZINC000680410869    0.0800
     37 H37        -5.0490    4.3619   52.1543 H       1  ZINC000680410869    0.1200
     38 H38        -2.6008    4.2596   52.3972 H       1  ZINC000680410869    0.1200
     39 H39        -1.2744    2.8210   50.9025 H       1  ZINC000680410869    0.1200
     40 H40        -2.3963    1.4839   49.1655 H       1  ZINC000680410869    0.1200
     41 H41        -4.8449    1.5827   48.9258 H       1  ZINC000680410869    0.1200
     42 H42        -7.3417   -0.6007   51.9466 H       1  ZINC000680410869    0.0800
     43 H43        -8.9946   -0.3231   51.3396 H       1  ZINC000680410869    0.1300
@<TRIPOS>BOND
     1     1     2    2
     2     2     3    1
     3     2    11   am
     4     3    10    1
     5     3     4    2
     6     4     5    1
     7     5     6    1
     8     5     9    1
     9     6     7    1
    10     6     8    1
    11     6    26    1
    12     9    10    2
    13     9    27    1
    14    10    28    1
    15    11    25    1
    16    11    12    1
    17    12    13    1
    18    12    29    1
    19    12    30    1
    20    13    14    1
    21    13    31    1
    22    13    32    1
    23    14    15    1
    24    15    16    1
    25    15    17    1
    26    15    25    1
    27    17    18    1
    28    17    33    1
    29    17    34    1
    30    18    19    1
    31    18    35    1
    32    18    36    1
    33    19    24   ar
    34    19    20   ar
    35    20    21   ar
    36    20    37    1
    37    21    22   ar
    38    21    38    1
    39    22    23   ar
    40    22    39    1
    41    23    24   ar
    42    23    40    1
    43    24    41    1
    44    25    42    1
    45    25    43    1
@<TRIPOS>SUBSTRUCTURE
     1 ZINC000680410869        1 TEMP              0 ****  ****    0 ROOT


##########                                Name:    ZINC001085817863
##########                DOCK_Rotatable_Bonds:                   7
##########                         Heavy_Atoms:                  24
##########                    Molecular_Weight:             326.442
##########                DOCK_Rotatable_Bonds:                   7
##########                       Formal_Charge:           0.0299998
##########                     HBond_Acceptors:                   5
##########                        HBond_Donors:                   0
##########                         Heavy_Atoms:                  24
##########                          Grid_Score:          -28.598881
##########                     Grid_vdw_energy:          -27.841734
##########                      Grid_es_energy:           -0.757146
##########           Internal_energy_repulsive:           14.188741

@<TRIPOS>MOLECULE
ZINC001085817863
 50 52 1 0 0
SMALL
USER_CHARGES


@<TRIPOS>ATOM
      1 C1        -10.9093   -2.2864   56.0969 C.3     1  ZINC001085817863   -0.1400
      2 C2        -11.2130   -2.0897   57.5835 C.3     1  ZINC001085817863   -0.0700
      3 C3         -9.9207   -1.9516   58.3463 C.2     1  ZINC001085817863    0.1100
      4 C4         -9.2463   -0.7835   58.5728 C.2     1  ZINC001085817863   -0.2400
      5 C5         -9.6360    0.5645   58.1260 C.2     1  ZINC001085817863    0.6000
      6 O6         -9.4876    0.8862   56.9625 O.2     1  ZINC001085817863   -0.5300
      7 N7        -10.1573    1.4418   59.0065 N.am    1  ZINC001085817863   -0.6100
      8 C8        -10.5451    2.7827   58.5620 C.3     1  ZINC001085817863    0.0800
      9 C9        -10.3362    1.0544   60.4079 C.3     1  ZINC001085817863    0.1300
     10 C10        -9.1393    1.5399   61.2280 C.3     1  ZINC001085817863    0.0100
     11 H11        -8.1912    1.1417   60.8663 H       1  ZINC001085817863    0.0800
     12 C12        -9.1218    3.0596   61.4439 C.3     1  ZINC001085817863   -0.1400
     13 C13        -8.6325    2.6810   62.8488 C.3     1  ZINC001085817863    0.0000
     14 N14        -9.3236    1.3873   62.6833 N.3     1  ZINC001085817863   -0.4400
     15 C15        -8.5072    0.2837   63.2061 C.3     1  ZINC001085817863    0.0700
     16 C16        -8.3033    0.4678   64.6879 C.ar    1  ZINC001085817863   -0.1300
     17 C17        -7.1082    0.0955   65.2837 C.ar    1  ZINC001085817863   -0.0700
     18 C18        -6.9651    0.2838   66.6500 C.ar    1  ZINC001085817863   -0.1700
     19 C19        -8.0109    0.8324   67.3674 C.ar    1  ZINC001085817863    0.1000
     20 N20        -9.1342    1.1750   66.7671 N.ar    1  ZINC001085817863   -0.4800
     21 C21        -9.3036    1.0153   65.4692 C.ar    1  ZINC001085817863    0.1200
     22 C22        -8.0567   -1.1446   59.3513 C.2     1  ZINC001085817863   -0.1900
     23 C23        -8.1100   -2.4768   59.5276 C.2     1  ZINC001085817863   -0.0200
     24 N24        -9.2367   -2.9565   58.9257 N.pl3   1  ZINC001085817863   -0.4400
     25 C25        -9.6393   -4.3648   58.9039 C.3     1  ZINC001085817863    0.0600
     26 H26       -11.8440   -2.3864   55.5451 H       1  ZINC001085817863    0.0600
     27 H27       -10.3564   -1.4252   55.7220 H       1  ZINC001085817863    0.0500
     28 H28       -10.3110   -3.1879   55.9644 H       1  ZINC001085817863    0.0600
     29 H29       -11.8112   -1.1883   57.7160 H       1  ZINC001085817863    0.0600
     30 H30       -11.7659   -2.9510   57.9584 H       1  ZINC001085817863    0.1100
     31 H31       -11.2890    2.7019   57.7694 H       1  ZINC001085817863    0.0700
     32 H32       -10.9667    3.3359   59.4011 H       1  ZINC001085817863    0.0700
     33 H33        -9.6678    3.3082   58.1845 H       1  ZINC001085817863    0.0600
     34 H34       -11.2495    1.5054   60.7958 H       1  ZINC001085817863    0.0800
     35 H35       -10.4087   -0.0310   60.4785 H       1  ZINC001085817863    0.1000
     36 H36        -8.3829    3.5876   60.8411 H       1  ZINC001085817863    0.0800
     37 H37       -10.1076    3.5244   61.4248 H       1  ZINC001085817863    0.1000
     38 H38        -7.5490    2.5872   62.9206 H       1  ZINC001085817863    0.0700
     39 H39        -9.0558    3.3023   63.6381 H       1  ZINC001085817863    0.0800
     40 H40        -9.0164   -0.6628   63.0243 H       1  ZINC001085817863    0.0900
     41 H41        -7.5396    0.2781   62.7043 H       1  ZINC001085817863    0.0500
     42 H42        -6.3078   -0.3314   64.6975 H       1  ZINC001085817863    0.1300
     43 H43        -6.0478    0.0049   67.1474 H       1  ZINC001085817863    0.1300
     44 H44        -7.9076    0.9820   68.4319 H       1  ZINC001085817863    0.1600
     45 H45       -10.2376    1.3077   65.0129 H       1  ZINC001085817863    0.1500
     46 H46        -7.2903   -0.4741   59.7112 H       1  ZINC001085817863    0.1600
     47 H47        -7.3822   -3.0695   60.0617 H       1  ZINC001085817863    0.1600
     48 H48       -10.2634   -4.5777   59.7719 H       1  ZINC001085817863    0.0800
     49 H49       -10.2026   -4.5677   57.9931 H       1  ZINC001085817863    0.0900
     50 H50        -8.7518   -4.9969   58.9308 H       1  ZINC001085817863    0.0900
@<TRIPOS>BOND
     1     1     2    1
     2     1    26    1
     3     1    27    1
     4     1    28    1
     5     2     3    1
     6     2    29    1
     7     2    30    1
     8     3    24    1
     9     3     4    2
    10     4     5    1
    11     4    22    1
    12     5     6    2
    13     5     7   am
    14     7     8    1
    15     7     9    1
    16     8    31    1
    17     8    32    1
    18     8    33    1
    19     9    10    1
    20     9    34    1
    21     9    35    1
    22    10    11    1
    23    10    14    1
    24    10    12    1
    25    12    13    1
    26    12    36    1
    27    12    37    1
    28    13    14    1
    29    13    38    1
    30    13    39    1
    31    14    15    1
    32    15    16    1
    33    15    40    1
    34    15    41    1
    35    16    21   ar
    36    16    17   ar
    37    17    18   ar
    38    17    42    1
    39    18    19   ar
    40    18    43    1
    41    19    20   ar
    42    19    44    1
    43    20    21   ar
    44    21    45    1
    45    22    23    2
    46    22    46    1
    47    23    24    1
    48    23    47    1
    49    24    25    1
    50    25    48    1
    51    25    49    1
    52    25    50    1
@<TRIPOS>SUBSTRUCTURE
     1 ZINC001085817863        1 TEMP              0 ****  ****    0 ROOT


##########                                Name:    ZINC000566738344
##########                DOCK_Rotatable_Bonds:                   5
##########                         Heavy_Atoms:                  23
##########                    Molecular_Weight:             352.478
##########                DOCK_Rotatable_Bonds:                   5
##########                       Formal_Charge:           0.0100005
##########                     HBond_Acceptors:                   7
##########                        HBond_Donors:                   0
##########                         Heavy_Atoms:                  23
##########                          Grid_Score:          -28.552549
##########                     Grid_vdw_energy:          -27.001450
##########                      Grid_es_energy:           -1.551100
##########           Internal_energy_repulsive:           22.309536

@<TRIPOS>MOLECULE
ZINC000566738344
 43 44 1 0 0
SMALL
USER_CHARGES


@<TRIPOS>ATOM
      1 C1         -3.1072    0.9507   49.0409 C.3     1  ZINC000566738344   -0.1300
      2 C2         -2.4457    1.9790   49.9218 C.ar    1  ZINC000566738344   -0.0100
      3 C3         -3.2132    2.8229   50.6912 C.ar    1  ZINC000566738344   -0.1000
      4 C4         -2.6025    3.7739   51.5051 C.ar    1  ZINC000566738344   -0.0500
      5 S5         -3.5889    4.8531   52.4884 S.3     1  ZINC000566738344   -0.0300
      6 C6         -5.0619    3.8539   52.8388 C.3     1  ZINC000566738344   -0.1200
      7 H7         -4.8307    2.7998   52.6858 H       1  ZINC000566738344    0.1200
      8 C8         -5.4956    4.0758   54.2891 C.3     1  ZINC000566738344   -0.1300
      9 C9         -6.1782    4.2629   51.9125 C.2     1  ZINC000566738344    0.5200
     10 O10        -6.1367    5.3364   51.3498 O.2     1  ZINC000566738344   -0.5000
     11 N11        -7.2226    3.4356   51.7096 N.am    1  ZINC000566738344   -0.6000
     12 C12        -8.3068    3.8323   50.8078 C.3     1  ZINC000566738344    0.0600
     13 C13        -7.2737    2.1395   52.3906 C.3     1  ZINC000566738344    0.1500
     14 H14        -6.3456    1.9768   52.9387 H       1  ZINC000566738344    0.1300
     15 C15        -8.4625    2.1149   53.3674 C.3     1  ZINC000566738344   -0.1300
     16 C16        -8.6555    0.6368   53.7939 C.3     1  ZINC000566738344   -0.5900
     17 S17        -8.4464   -0.2653   52.2121 S.o2    1  ZINC000566738344    2.4000
     18 O18        -7.6378   -1.4135   52.4281 O.2     1  ZINC000566738344   -0.9300
     19 O19        -9.7099   -0.3990   51.5757 O.2     1  ZINC000566738344   -0.9300
     20 C20        -7.4666    1.0159   51.3530 C.3     1  ZINC000566738344   -0.6200
     21 C21        -1.2142    3.8734   51.5438 C.ar    1  ZINC000566738344   -0.1400
     22 C22        -0.4410    3.0322   50.7766 C.ar    1  ZINC000566738344   -0.0400
     23 C23        -1.0508    2.0729   49.9624 C.ar    1  ZINC000566738344   -0.0400
     24 C24        -0.2492    1.1961   49.1629 C.1     1  ZINC000566738344    0.2500
     25 N25         0.3868    0.5005   48.5286 N.1     1  ZINC000566738344   -0.4100
     26 H26        -3.2437    0.0259   49.6016 H       1  ZINC000566738344    0.0800
     27 H27        -4.0776    1.3234   48.7131 H       1  ZINC000566738344    0.0800
     28 H28        -2.4788    0.7590   48.1713 H       1  ZINC000566738344    0.0700
     29 H29        -4.2902    2.7480   50.6636 H       1  ZINC000566738344    0.1400
     30 H30        -5.8114    5.1109   54.4197 H       1  ZINC000566738344    0.0800
     31 H31        -6.3255    3.4101   54.5261 H       1  ZINC000566738344    0.0800
     32 H32        -4.6588    3.8645   54.9549 H       1  ZINC000566738344    0.0900
     33 H33        -8.0790    3.4970   49.7959 H       1  ZINC000566738344    0.0700
     34 H34        -9.2402    3.3776   51.1396 H       1  ZINC000566738344    0.0800
     35 H35        -8.4081    4.9176   50.8167 H       1  ZINC000566738344    0.0800
     36 H36        -8.2414    2.7293   54.2401 H       1  ZINC000566738344    0.1100
     37 H37        -9.3612    2.4805   52.8708 H       1  ZINC000566738344    0.0900
     38 H38        -7.8926    0.3388   54.5130 H       1  ZINC000566738344    0.1400
     39 H39        -9.6545    0.4786   54.2003 H       1  ZINC000566738344    0.1400
     40 H40        -8.0100    1.3894   50.4850 H       1  ZINC000566738344    0.1400
     41 H41        -6.4996    0.6136   51.0508 H       1  ZINC000566738344    0.1500
     42 H42        -0.7437    4.6117   52.1763 H       1  ZINC000566738344    0.1200
     43 H43         0.6357    3.1102   50.8067 H       1  ZINC000566738344    0.1400
@<TRIPOS>BOND
     1     1     2    1
     2     1    26    1
     3     1    27    1
     4     1    28    1
     5     2    23   ar
     6     2     3   ar
     7     3     4   ar
     8     3    29    1
     9     4     5    1
    10     4    21   ar
    11     5     6    1
    12     6     7    1
    13     6     8    1
    14     6     9    1
    15     8    30    1
    16     8    31    1
    17     8    32    1
    18     9    10    2
    19     9    11   am
    20    11    12    1
    21    11    13    1
    22    12    33    1
    23    12    34    1
    24    12    35    1
    25    13    14    1
    26    13    20    1
    27    13    15    1
    28    15    16    1
    29    15    36    1
    30    15    37    1
    31    16    17    1
    32    16    38    1
    33    16    39    1
    34    17    18    2
    35    17    19    2
    36    17    20    1
    37    20    40    1
    38    20    41    1
    39    21    22   ar
    40    21    42    1
    41    22    23   ar
    42    22    43    1
    43    23    24    1
    44    24    25    3
@<TRIPOS>SUBSTRUCTURE
     1 ZINC000566738344        1 TEMP              0 ****  ****    0 ROOT


##########                                Name:    ZINC000013551438
##########                DOCK_Rotatable_Bonds:                   5
##########                         Heavy_Atoms:                  27
##########                    Molecular_Weight:             377.467
##########                DOCK_Rotatable_Bonds:                   5
##########                       Formal_Charge:          -0.0300005
##########                     HBond_Acceptors:                   6
##########                        HBond_Donors:                   1
##########                         Heavy_Atoms:                  27
##########                          Grid_Score:          -28.552242
##########                     Grid_vdw_energy:          -26.990599
##########                      Grid_es_energy:           -1.561644
##########           Internal_energy_repulsive:           11.395707

@<TRIPOS>MOLECULE
ZINC000013551438
 46 49 1 0 0
SMALL
USER_CHARGES


@<TRIPOS>ATOM
      1 C1        -15.7483   -3.4018   59.2692 C.3     1  <0>         0.0300
      2 O2        -15.5157   -3.5349   57.8656 O.3     1  <0>        -0.3200
      3 C3        -14.7284   -2.5943   57.2784 C.ar    1  <0>         0.1000
      4 C4        -15.2335   -1.8170   56.2399 C.ar    1  <0>        -0.1800
      5 C5        -14.4491   -0.8604   55.6347 C.ar    1  <0>        -0.0900
      6 C6        -13.1394   -0.6638   56.0601 C.ar    1  <0>         0.0700
      7 C7        -12.6278   -1.4472   57.1087 C.ar    1  <0>        -0.0400
      8 C8        -13.4320   -2.4097   57.7182 C.ar    1  <0>        -0.1100
      9 C9        -11.2409   -0.9998   57.3124 C.2     1  <0>        -0.1200
     10 C10       -10.2789   -1.5263   58.3116 C.2     1  <0>         0.1700
     11 C11        -9.6384   -2.7010   58.1623 C.2     1  <0>        -0.3000
     12 S12        -8.6011   -2.9384   59.5661 S.3     1  <0>         0.2500
     13 C13        -9.1199   -1.4471   60.2202 C.2     1  <0>         0.2400
     14 N14        -8.6854   -0.9179   61.4281 N.am    1  <0>        -0.6200
     15 C15        -9.4894   -0.0969   62.1323 C.2     1  <0>         0.5600
     16 O16       -10.5956    0.1792   61.7106 O.2     1  <0>        -0.5000
     17 C17        -9.0261    0.4678   63.4171 C.ar    1  <0>        -0.1400
     18 C18        -7.7382    0.1928   63.8800 C.ar    1  <0>        -0.0800
     19 C19        -7.3118    0.7235   65.0799 C.ar    1  <0>        -0.1300
     20 C20        -8.1578    1.5266   65.8241 C.ar    1  <0>        -0.0800
     21 C21        -9.4357    1.8027   65.3714 C.ar    1  <0>        -0.1300
     22 C22        -9.8726    1.2832   64.1704 C.ar    1  <0>        -0.0500
     23 N23        -9.9707   -0.8776   59.4274 N.2     1  <0>        -0.5000
     24 C24       -11.0119   -0.0150   56.4113 C.2     1  <0>         0.1300
     25 C25        -9.7145    0.7365   56.2591 C.3     1  <0>        -0.0900
     26 N26       -12.1355    0.1939   55.6597 N.pl3   1  <0>        -0.4800
     27 C27       -12.2553    1.1831   54.5859 C.3     1  <0>         0.0800
     28 H28       -16.2350   -2.4470   59.4680 H       1  <0>         0.0500
     29 H29       -16.3899   -4.2146   59.6098 H       1  <0>         0.1000
     30 H30       -14.7974   -3.4425   59.8006 H       1  <0>         0.0500
     31 H31       -16.2496   -1.9659   55.9055 H       1  <0>         0.1300
     32 H32       -14.8508   -0.2630   54.8296 H       1  <0>         0.1200
     33 H33       -13.0409   -3.0129   58.5242 H       1  <0>         0.1300
     34 H34        -9.7423   -3.3790   57.3281 H       1  <0>         0.1800
     35 H35        -7.8032   -1.1392   61.7652 H       1  <0>         0.4200
     36 H36        -7.0770   -0.4342   63.3002 H       1  <0>         0.1300
     37 H37        -6.3158    0.5112   65.4394 H       1  <0>         0.1300
     38 H38        -7.8191    1.9395   66.7628 H       1  <0>         0.1300
     39 H39       -10.0912    2.4301   65.9573 H       1  <0>         0.1300
     40 H40       -10.8702    1.4997   63.8179 H       1  <0>         0.1400
     41 H41        -9.1146    0.2710   55.4771 H       1  <0>         0.0800
     42 H42        -9.9238    1.7715   55.9888 H       1  <0>         0.0700
     43 H43        -9.1669    0.7106   57.2011 H       1  <0>         0.0800
     44 H44       -11.9601    0.7298   53.6396 H       1  <0>         0.0700
     45 H45       -13.2886    1.5236   54.5189 H       1  <0>         0.0800
     46 H46       -11.6061    2.0322   54.8000 H       1  <0>         0.0800
@<TRIPOS>BOND
     1     1     2    1
     2     1    28    1
     3     1    29    1
     4     1    30    1
     5     2     3    1
     6     3     8   ar
     7     3     4   ar
     8     4     5   ar
     9     4    31    1
    10     5     6   ar
    11     5    32    1
    12     6    26    1
    13     6     7   ar
    14     7     8   ar
    15     7     9    1
    16     8    33    1
    17     9    10    1
    18     9    24    2
    19    10    23    1
    20    10    11    2
    21    11    12    1
    22    11    34    1
    23    12    13    1
    24    13    14    1
    25    13    23    2
    26    14    15   am
    27    14    35    1
    28    15    16    2
    29    15    17    1
    30    17    22   ar
    31    17    18   ar
    32    18    19   ar
    33    18    36    1
    34    19    20   ar
    35    19    37    1
    36    20    21   ar
    37    20    38    1
    38    21    22   ar
    39    21    39    1
    40    22    40    1
    41    24    25    1
    42    24    26    1
    43    25    41    1
    44    25    42    1
    45    25    43    1
    46    26    27    1
    47    27    44    1
    48    27    45    1
    49    27    46    1
@<TRIPOS>SUBSTRUCTURE
     1 <0>         1 TEMP              0 ****  ****    0 ROOT


##########                                Name:    ZINC000464752079
##########                DOCK_Rotatable_Bonds:                   7
##########                         Heavy_Atoms:                  29
##########                    Molecular_Weight:             404.413
##########                DOCK_Rotatable_Bonds:                   7
##########                       Formal_Charge:         7.45058e-08
##########                     HBond_Acceptors:                   8
##########                        HBond_Donors:                   1
##########                         Heavy_Atoms:                  29
##########                          Grid_Score:          -28.544020
##########                     Grid_vdw_energy:          -28.561806
##########                      Grid_es_energy:            0.017787
##########           Internal_energy_repulsive:           25.071213

@<TRIPOS>MOLECULE
ZINC000464752079
 51 54 1 0 0
SMALL
USER_CHARGES


@<TRIPOS>ATOM
      1 C1        -12.5533   -3.0052   57.0795 C.3     1  ZINC000464752079   -0.1200
      2 C2        -11.1891   -2.7771   57.6780 C.ar    1  ZINC000464752079   -0.0800
      3 C3        -10.5019   -3.8294   58.2528 C.ar    1  ZINC000464752079   -0.1200
      4 C4         -9.2504   -3.6201   58.8019 C.ar    1  ZINC000464752079   -0.1200
      5 C5         -8.6865   -2.3585   58.7757 C.ar    1  ZINC000464752079   -0.1300
      6 C6         -9.3735   -1.3060   58.1999 C.ar    1  ZINC000464752079   -0.0900
      7 C7        -10.6228   -1.5162   57.6471 C.ar    1  ZINC000464752079   -0.0800
      8 C8        -11.3718   -0.3689   57.0195 C.3     1  ZINC000464752079    0.2000
      9 H9        -12.3294   -0.7185   56.6337 H       1  ZINC000464752079    0.0900
     10 C10       -11.6013    0.7426   58.0651 C.3     1  ZINC000464752079   -0.1200
     11 C11       -11.4011    2.0419   57.2409 C.3     1  ZINC000464752079   -0.1300
     12 C12       -10.2766    1.6193   56.2627 C.3     1  ZINC000464752079    0.1000
     13 N13       -10.5749    0.2113   55.9286 N.am    1  ZINC000464752079   -0.6300
     14 C14       -10.1792   -0.4320   54.8124 C.2     1  ZINC000464752079    0.7200
     15 O15       -10.4849   -1.5962   54.6410 O.2     1  ZINC000464752079   -0.5700
     16 N16        -9.4444    0.2152   53.8863 N.am    1  ZINC000464752079   -0.7400
     17 C17        -9.0157   -0.4836   52.6722 C.3     1  ZINC000464752079    0.1900
     18 C18        -8.1506    0.4319   51.8447 C.ar    1  ZINC000464752079   -0.1200
     19 C19        -6.8392    0.0869   51.5772 C.ar    1  ZINC000464752079   -0.0500
     20 C20        -6.0412    0.9264   50.8173 C.ar    1  ZINC000464752079    0.0100
     21 C21        -6.5619    2.1193   50.3222 C.ar    1  ZINC000464752079    0.0800
     22 C22        -7.8769    2.4624   50.5905 C.ar    1  ZINC000464752079   -0.1800
     23 C23        -8.6731    1.6167   51.3478 C.ar    1  ZINC000464752079    0.1400
     24 O24        -9.9640    1.9534   51.6109 O.3     1  ZINC000464752079   -0.3100
     25 C25       -10.1869    3.1972   52.2781 C.3     1  ZINC000464752079    0.4100
     26 F26       -10.1710    4.2375   51.3428 F       1  ZINC000464752079   -0.2000
     27 F27       -11.4296    3.1660   52.9199 F       1  ZINC000464752079   -0.2000
     28 O28        -5.5871    2.7599   49.6131 O.3     1  ZINC000464752079   -0.3000
     29 C29        -4.3493    2.1477   50.0207 C.3     1  ZINC000464752079    0.2100
     30 O30        -4.7392    0.8198   50.4180 O.3     1  ZINC000464752079   -0.3000
     31 H31       -12.4484   -3.2773   56.0292 H       1  ZINC000464752079    0.0700
     32 H32       -13.0549   -3.8112   57.6151 H       1  ZINC000464752079    0.0700
     33 H33       -13.1432   -2.0923   57.1611 H       1  ZINC000464752079    0.0700
     34 H34       -10.9426   -4.8152   58.2733 H       1  ZINC000464752079    0.1200
     35 H35        -8.7137   -4.4423   59.2517 H       1  ZINC000464752079    0.1200
     36 H36        -7.7091   -2.1948   59.2053 H       1  ZINC000464752079    0.1200
     37 H37        -8.9330   -0.3202   58.1797 H       1  ZINC000464752079    0.1100
     38 H38       -12.6139    0.6923   58.4656 H       1  ZINC000464752079    0.0900
     39 H39       -10.8650    0.6767   58.8660 H       1  ZINC000464752079    0.0800
     40 H40       -12.3102    2.3058   56.7006 H       1  ZINC000464752079    0.0800
     41 H41       -11.0753    2.8632   57.8792 H       1  ZINC000464752079    0.0900
     42 H42       -10.3047    2.2351   55.3638 H       1  ZINC000464752079    0.0700
     43 H43        -9.3033    1.6975   56.7470 H       1  ZINC000464752079    0.0700
     44 H44        -9.1996    1.1437   54.0236 H       1  ZINC000464752079    0.4000
     45 H45        -8.4466   -1.3719   52.9460 H       1  ZINC000464752079    0.0800
     46 H46        -9.8915   -0.7772   52.0935 H       1  ZINC000464752079    0.0800
     47 H47        -6.4359   -0.8383   51.9615 H       1  ZINC000464752079    0.1500
     48 H48        -8.2828    3.3870   50.2074 H       1  ZINC000464752079    0.1500
     49 H49        -9.4010    3.3597   53.0157 H       1  ZINC000464752079    0.1900
     50 H50        -3.6488    2.1079   49.1866 H       1  ZINC000464752079    0.1400
     51 H51        -3.9142    2.6870   50.8622 H       1  ZINC000464752079    0.0900
@<TRIPOS>BOND
     1     1     2    1
     2     1    31    1
     3     1    32    1
     4     1    33    1
     5     2     7   ar
     6     2     3   ar
     7     3     4   ar
     8     3    34    1
     9     4     5   ar
    10     4    35    1
    11     5     6   ar
    12     5    36    1
    13     6     7   ar
    14     6    37    1
    15     7     8    1
    16     8     9    1
    17     8    13    1
    18     8    10    1
    19    10    11    1
    20    10    38    1
    21    10    39    1
    22    11    12    1
    23    11    40    1
    24    11    41    1
    25    12    13    1
    26    12    42    1
    27    12    43    1
    28    13    14   am
    29    14    15    2
    30    14    16   am
    31    16    17    1
    32    16    44    1
    33    17    18    1
    34    17    45    1
    35    17    46    1
    36    18    23   ar
    37    18    19   ar
    38    19    20   ar
    39    19    47    1
    40    20    30    1
    41    20    21   ar
    42    21    22   ar
    43    21    28    1
    44    22    23   ar
    45    22    48    1
    46    23    24    1
    47    24    25    1
    48    25    26    1
    49    25    27    1
    50    25    49    1
    51    28    29    1
    52    29    30    1
    53    29    50    1
    54    29    51    1
@<TRIPOS>SUBSTRUCTURE
     1 ZINC000464752079        1 TEMP              0 ****  ****    0 ROOT


##########                                Name:    ZINC000894043060
##########                DOCK_Rotatable_Bonds:                  11
##########                         Heavy_Atoms:                  26
##########                    Molecular_Weight:             396.812
##########                DOCK_Rotatable_Bonds:                  11
##########                       Formal_Charge:          -0.0199999
##########                     HBond_Acceptors:                   9
##########                        HBond_Donors:                   2
##########                         Heavy_Atoms:                  26
##########                          Grid_Score:          -28.531599
##########                     Grid_vdw_energy:          -28.434835
##########                      Grid_es_energy:           -0.096764
##########           Internal_energy_repulsive:           11.514127

@<TRIPOS>MOLECULE
ZINC000894043060
 47 47 1 0 0
SMALL
USER_CHARGES


@<TRIPOS>ATOM
      1 C1        -14.5969    1.6434   52.6611 C.3     1  ZINC000894043060   -0.1700
      2 C2        -13.5744    0.5511   52.3412 C.3     1  ZINC000894043060    0.1000
      3 H3        -13.8127   -0.3476   52.9101 H       1  ZINC000894043060    0.1100
      4 N4        -12.2332    1.0165   52.7029 N.am    1  ZINC000894043060   -0.7300
      5 C5        -11.7650    0.8185   53.9511 C.2     1  ZINC000894043060    0.5200
      6 O6        -12.4547    0.2564   54.7754 O.2     1  ZINC000894043060   -0.5200
      7 C7        -10.3847    1.2957   54.3227 C.3     1  ZINC000894043060   -0.1400
      8 C8         -9.4072    0.1199   54.2697 C.3     1  ZINC000894043060   -0.0200
      9 C9         -7.9727    0.6506   54.2296 C.3     1  ZINC000894043060   -0.1400
     10 C10        -7.4562    0.5958   52.8149 C.2     1  ZINC000894043060    0.5200
     11 O11        -7.0314   -0.4470   52.3645 O.2     1  ZINC000894043060   -0.5200
     12 N12        -7.4664    1.7058   52.0504 N.am    1  ZINC000894043060   -0.7300
     13 C13        -6.9659    1.6522   50.6747 C.3     1  ZINC000894043060    0.1000
     14 H14        -7.1721    0.6693   50.2510 H       1  ZINC000894043060    0.1200
     15 C15        -7.6631    2.7254   49.8361 C.3     1  ZINC000894043060   -0.1700
     16 C16        -5.4566    1.9027   50.6710 C.3     1  ZINC000894043060    0.2600
     17 F17        -4.9801    1.8608   49.3562 F       1  ZINC000894043060   -0.1900
     18 F18        -5.1912    3.1603   51.2233 F       1  ZINC000894043060   -0.2000
     19 C19        -9.5903   -0.7411   55.4929 C.ar    1  ZINC000894043060   -0.0600
     20 C20        -9.2966   -0.2339   56.7450 C.ar    1  ZINC000894043060   -0.1200
     21 C21        -9.4643   -1.0231   57.8673 C.ar    1  ZINC000894043060   -0.1200
     22 C22        -9.9261   -2.3208   57.7374 C.ar    1  ZINC000894043060   -0.0400
     23 Cl23      -10.1375   -3.3124   59.1465 Cl      1  ZINC000894043060   -0.0800
     24 C24       -10.2198   -2.8278   56.4840 C.ar    1  ZINC000894043060   -0.1100
     25 C25       -10.0571   -2.0358   55.3630 C.ar    1  ZINC000894043060   -0.0400
     26 C26       -13.6179    0.2341   50.8450 C.3     1  ZINC000894043060    0.2600
     27 F27       -14.8888   -0.2427   50.5062 F       1  ZINC000894043060   -0.2000
     28 F28       -13.3453    1.3953   50.1142 F       1  ZINC000894043060   -0.1900
     29 H29       -14.3584    2.5421   52.0922 H       1  ZINC000894043060    0.0600
     30 H30       -15.5946    1.2971   52.3920 H       1  ZINC000894043060    0.0800
     31 H31       -14.5658    1.8693   53.7270 H       1  ZINC000894043060    0.0800
     32 H32       -11.6821    1.4672   52.0440 H       1  ZINC000894043060    0.4000
     33 H33       -10.0652    2.0657   53.6205 H       1  ZINC000894043060    0.1000
     34 H34       -10.4022    1.7084   55.3314 H       1  ZINC000894043060    0.1000
     35 H35        -9.6003   -0.4732   53.3758 H       1  ZINC000894043060    0.1000
     36 H36        -7.9568    1.6817   54.5825 H       1  ZINC000894043060    0.1000
     37 H37        -7.3403    0.0372   54.8713 H       1  ZINC000894043060    0.1000
     38 H38        -7.8051    2.5401   52.4112 H       1  ZINC000894043060    0.4000
     39 H39        -7.4568    3.7083   50.2598 H       1  ZINC000894043060    0.0700
     40 H40        -7.2906    2.6855   48.8125 H       1  ZINC000894043060    0.0800
     41 H41        -8.7383    2.5469   49.8387 H       1  ZINC000894043060    0.0700
     42 H42        -4.9592    1.1339   51.2622 H       1  ZINC000894043060    0.1200
     43 H43        -8.9358    0.7789   56.8462 H       1  ZINC000894043060    0.1200
     44 H44        -9.2345   -0.6270   58.8454 H       1  ZINC000894043060    0.1300
     45 H45       -10.5800   -3.8408   56.3820 H       1  ZINC000894043060    0.1300
     46 H46       -10.2866   -2.4313   54.3846 H       1  ZINC000894043060    0.1300
     47 H47       -12.8712   -0.5252   50.6126 H       1  ZINC000894043060    0.1100
@<TRIPOS>BOND
     1     1     2    1
     2     1    29    1
     3     1    30    1
     4     1    31    1
     5     2     3    1
     6     2     4    1
     7     2    26    1
     8     4     5   am
     9     4    32    1
    10     5     6    2
    11     5     7    1
    12     7     8    1
    13     7    33    1
    14     7    34    1
    15     8     9    1
    16     8    19    1
    17     8    35    1
    18     9    10    1
    19     9    36    1
    20     9    37    1
    21    10    11    2
    22    10    12   am
    23    12    13    1
    24    12    38    1
    25    13    14    1
    26    13    15    1
    27    13    16    1
    28    15    39    1
    29    15    40    1
    30    15    41    1
    31    16    17    1
    32    16    18    1
    33    16    42    1
    34    19    25   ar
    35    19    20   ar
    36    20    21   ar
    37    20    43    1
    38    21    22   ar
    39    21    44    1
    40    22    23    1
    41    22    24   ar
    42    24    25   ar
    43    24    45    1
    44    25    46    1
    45    26    27    1
    46    26    28    1
    47    26    47    1
@<TRIPOS>SUBSTRUCTURE
     1 ZINC000894043060        1 TEMP              0 ****  ****    0 ROOT


##########                                Name:    ZINC000350493047
##########                DOCK_Rotatable_Bonds:                   7
##########                         Heavy_Atoms:                  24
##########                    Molecular_Weight:             330.387
##########                DOCK_Rotatable_Bonds:                   7
##########                       Formal_Charge:          -0.0300002
##########                     HBond_Acceptors:                   7
##########                        HBond_Donors:                   3
##########                         Heavy_Atoms:                  24
##########                          Grid_Score:          -28.529333
##########                     Grid_vdw_energy:          -27.955688
##########                      Grid_es_energy:           -0.573644
##########           Internal_energy_repulsive:           12.009337

@<TRIPOS>MOLECULE
ZINC000350493047
 46 48 1 0 0
SMALL
USER_CHARGES


@<TRIPOS>ATOM
      1 C1         -5.7200    3.1375   50.1154 C.3     1  <0>        -0.1600
      2 C2         -5.0322    2.0095   50.8871 C.3     1  <0>         0.2600
      3 H3         -4.2934    2.4328   51.5676 H       1  <0>         0.1200
      4 N4         -4.3668    1.1075   49.9437 N.am    1  <0>        -0.7400
      5 C5         -3.1083    1.3665   49.5371 C.2     1  <0>         0.7100
      6 N6         -2.4955    0.5358   48.6705 N.am    1  <0>        -0.8600
      7 O7         -2.5255    2.3497   49.9520 O.2     1  <0>        -0.5900
      8 C8         -6.0604    1.2412   51.6766 C.2     1  <0>         0.1700
      9 N9         -6.4634    0.0283   51.4367 N.2     1  <0>        -0.3800
     10 O10        -7.2974   -0.3107   52.2495 O.3     1  <0>         0.0900
     11 C11        -7.5153    0.6892   53.1180 C.2     1  <0>         0.2400
     12 C12        -8.4545    0.6789   54.2573 C.ar    1  <0>        -0.0800
     13 C13        -9.5893   -0.1348   54.2221 C.ar    1  <0>        -0.0200
     14 C14       -10.4632   -0.1415   55.2871 C.ar    1  <0>        -0.2200
     15 C15       -10.2172    0.6601   56.3951 C.ar    1  <0>         0.1700
     16 O16       -11.0811    0.6509   57.4424 O.3     1  <0>        -0.3000
     17 C17       -10.8209   -0.2856   58.4899 C.3     1  <0>         0.0800
     18 C18       -11.0941   -1.7039   57.9855 C.3     1  <0>        -0.1500
     19 C19       -10.8155   -2.7067   59.1070 C.3     1  <0>        -0.1200
     20 C20        -9.3529   -2.5928   59.5412 C.3     1  <0>        -0.1300
     21 C21        -9.0796   -1.1744   60.0457 C.3     1  <0>        -0.1200
     22 C22        -9.3582   -0.1717   58.9242 C.3     1  <0>        -0.1200
     23 C23        -9.0893    1.4705   56.4342 C.ar    1  <0>        -0.1600
     24 C24        -8.2075    1.4786   55.3758 C.ar    1  <0>        -0.0300
     25 N25        -6.7215    1.6830   52.7577 N.2     1  <0>        -0.4700
     26 H26        -6.4587    2.7142   49.4348 H       1  <0>         0.0600
     27 H27        -6.2150    3.8086   50.8173 H       1  <0>         0.0700
     28 H28        -4.9763    3.6931   49.5443 H       1  <0>         0.0800
     29 H29        -4.8320    0.3238   49.6118 H       1  <0>         0.4000
     30 H30        -1.5893    0.7218   48.3788 H       1  <0>         0.4000
     31 H31        -2.9607   -0.2479   48.3385 H       1  <0>         0.4200
     32 H32        -9.7816   -0.7575   53.3609 H       1  <0>         0.1400
     33 H33       -11.3408   -0.7703   55.2606 H       1  <0>         0.1400
     34 H34       -11.4698   -0.0707   59.3390 H       1  <0>         0.0800
     35 H35       -12.1362   -1.7851   57.6761 H       1  <0>         0.0700
     36 H36       -10.4452   -1.9189   57.1364 H       1  <0>         0.0800
     37 H37       -11.4644   -2.4917   59.9560 H       1  <0>         0.0600
     38 H38       -11.0102   -3.7171   58.7476 H       1  <0>         0.0700
     39 H39        -9.1544   -3.3072   60.3402 H       1  <0>         0.0700
     40 H40        -8.7040   -2.8078   58.6922 H       1  <0>         0.0700
     41 H41        -9.7285   -0.9595   60.8947 H       1  <0>         0.0700
     42 H42        -8.0376   -1.0933   60.3550 H       1  <0>         0.0700
     43 H43        -8.7093   -0.3867   58.0751 H       1  <0>         0.0800
     44 H44        -9.1635    0.8387   59.2836 H       1  <0>         0.0700
     45 H45        -8.9014    2.0918   57.2974 H       1  <0>         0.1400
     46 H46        -7.3308    2.1086   55.4071 H       1  <0>         0.1400
@<TRIPOS>BOND
     1     1     2    1
     2     1    26    1
     3     1    27    1
     4     1    28    1
     5     2     3    1
     6     2     4    1
     7     2     8    1
     8     4     5   am
     9     4    29    1
    10     5     6   am
    11     5     7    2
    12     6    30    1
    13     6    31    1
    14     8    25    1
    15     8     9    2
    16     9    10    1
    17    10    11    1
    18    11    12    1
    19    11    25    2
    20    12    24   ar
    21    12    13   ar
    22    13    14   ar
    23    13    32    1
    24    14    15   ar
    25    14    33    1
    26    15    16    1
    27    15    23   ar
    28    16    17    1
    29    17    22    1
    30    17    18    1
    31    17    34    1
    32    18    19    1
    33    18    35    1
    34    18    36    1
    35    19    20    1
    36    19    37    1
    37    19    38    1
    38    20    21    1
    39    20    39    1
    40    20    40    1
    41    21    22    1
    42    21    41    1
    43    21    42    1
    44    22    43    1
    45    22    44    1
    46    23    24   ar
    47    23    45    1
    48    24    46    1
@<TRIPOS>SUBSTRUCTURE
     1 <0>         1 TEMP              0 ****  ****    0 ROOT


##########                                Name:    ZINC000426037318
##########                DOCK_Rotatable_Bonds:                   7
##########                         Heavy_Atoms:                  28
##########                    Molecular_Weight:             421.904
##########                DOCK_Rotatable_Bonds:                   7
##########                       Formal_Charge:         -0.00999981
##########                     HBond_Acceptors:                   9
##########                        HBond_Donors:                   1
##########                         Heavy_Atoms:                  28
##########                          Grid_Score:          -28.526384
##########                     Grid_vdw_energy:          -27.387049
##########                      Grid_es_energy:           -1.139336
##########           Internal_energy_repulsive:           21.856655

@<TRIPOS>MOLECULE
ZINC000426037318
 48 50 1 0 0
SMALL
USER_CHARGES


@<TRIPOS>ATOM
      1 C1        -10.0714    1.3264   63.3355 C.3     1  ZINC000426037318    0.0300
      2 O2         -9.3372    0.1026   63.4078 O.3     1  ZINC000426037318   -0.3800
      3 C3         -8.1279    0.1044   62.6464 C.3     1  ZINC000426037318    0.1300
      4 C4         -8.4596    0.0844   61.1766 C.ar    1  ZINC000426037318    0.3900
      5 N5         -9.3989   -0.7379   60.7449 N.ar    1  ZINC000426037318   -0.5700
      6 C6         -9.7286   -0.7944   59.4656 C.ar    1  ZINC000426037318    0.4400
      7 O7        -10.6940   -1.6429   59.0416 O.3     1  ZINC000426037318   -0.2800
      8 C8        -11.0984   -2.6706   59.9484 C.3     1  ZINC000426037318    0.0300
      9 C9         -9.0541    0.0499   58.5428 C.ar    1  ZINC000426037318   -0.2000
     10 C10        -9.2148    0.1791   57.1584 C.2     1  ZINC000426037318    0.0500
     11 C11       -10.2197   -0.6361   56.3860 C.3     1  ZINC000426037318   -0.1200
     12 C12        -8.4161    1.0757   56.5667 C.2     1  ZINC000426037318   -0.2700
     13 C13        -8.4155    1.3728   55.1289 C.2     1  ZINC000426037318    0.6000
     14 O14        -8.1032    0.5102   54.3294 O.2     1  ZINC000426037318   -0.5000
     15 N15        -8.7608    2.6010   54.6944 N.am    1  ZINC000426037318   -0.6600
     16 C16        -8.7602    2.8845   53.3226 C.ar    1  ZINC000426037318    0.1200
     17 C17        -7.6184    2.6571   52.5670 C.ar    1  ZINC000426037318   -0.0700
     18 C18        -7.6186    2.9365   51.2141 C.ar    1  ZINC000426037318   -0.0900
     19 C19        -6.3789    2.6891   50.3939 C.3     1  ZINC000426037318   -0.1100
     20 C20        -8.7593    3.4443   50.6103 C.ar    1  ZINC000426037318    0.1300
     21 O21        -8.7584    3.7185   49.2785 O.3     1  ZINC000426037318   -0.3100
     22 C22        -9.9065    4.3877   48.7531 C.3     1  ZINC000426037318    0.0200
     23 C23        -9.9016    3.6722   51.3641 C.ar    1  ZINC000426037318   -0.1800
     24 C24        -9.9049    3.3884   52.7162 C.ar    1  ZINC000426037318   -0.0300
     25 Cl25      -11.3342    3.6729   53.6598 Cl      1  ZINC000426037318   -0.0600
     26 S26        -7.3700    1.8477   57.7460 S.3     1  ZINC000426037318    0.2200
     27 C27        -8.0660    0.9029   59.0555 C.ar    1  ZINC000426037318    0.1300
     28 N28        -7.8090    0.8890   60.3679 N.ar    1  ZINC000426037318   -0.5000
     29 H29       -10.9749    1.2442   63.9397 H       1  ZINC000426037318    0.0900
     30 H30        -9.4551    2.1426   63.7126 H       1  ZINC000426037318    0.0500
     31 H31       -10.3440    1.5260   62.2992 H       1  ZINC000426037318    0.0500
     32 H32        -7.5544    1.0020   62.8774 H       1  ZINC000426037318    0.0900
     33 H33        -7.5390   -0.7778   62.8979 H       1  ZINC000426037318    0.0800
     34 H34       -11.4864   -2.2180   60.8609 H       1  ZINC000426037318    0.0700
     35 H35       -11.8757   -3.2784   59.4854 H       1  ZINC000426037318    0.1100
     36 H36       -10.2415   -3.2993   60.1906 H       1  ZINC000426037318    0.0700
     37 H37       -11.1696   -0.1027   56.3499 H       1  ZINC000426037318    0.0900
     38 H38        -9.8546   -0.7968   55.3716 H       1  ZINC000426037318    0.1000
     39 H39       -10.3619   -1.5984   56.8776 H       1  ZINC000426037318    0.0800
     40 H40        -9.0099    3.2886   55.3317 H       1  ZINC000426037318    0.4100
     41 H41        -6.7297    2.2621   53.0367 H       1  ZINC000426037318    0.1600
     42 H42        -6.4014    1.6735   49.9987 H       1  ZINC000426037318    0.0700
     43 H43        -6.3418    3.3996   49.5681 H       1  ZINC000426037318    0.0700
     44 H44        -5.4967    2.8153   51.0216 H       1  ZINC000426037318    0.0700
     45 H45       -10.7932    3.7778   48.9258 H       1  ZINC000426037318    0.0600
     46 H46       -10.0251    5.3504   49.2501 H       1  ZINC000426037318    0.0600
     47 H47        -9.7768    4.5452   47.6823 H       1  ZINC000426037318    0.1000
     48 H48       -10.7894    4.0676   50.8931 H       1  ZINC000426037318    0.1500
@<TRIPOS>BOND
     1     1     2    1
     2     1    29    1
     3     1    30    1
     4     1    31    1
     5     2     3    1
     6     3     4    1
     7     3    32    1
     8     3    33    1
     9     4    28   ar
    10     4     5   ar
    11     5     6   ar
    12     6     7    1
    13     6     9   ar
    14     7     8    1
    15     8    34    1
    16     8    35    1
    17     8    36    1
    18     9    27   ar
    19     9    10    1
    20    10    11    1
    21    10    12    2
    22    11    37    1
    23    11    38    1
    24    11    39    1
    25    12    13    1
    26    12    26    1
    27    13    14    2
    28    13    15   am
    29    15    16    1
    30    15    40    1
    31    16    24   ar
    32    16    17   ar
    33    17    18   ar
    34    17    41    1
    35    18    19    1
    36    18    20   ar
    37    19    42    1
    38    19    43    1
    39    19    44    1
    40    20    21    1
    41    20    23   ar
    42    21    22    1
    43    22    45    1
    44    22    46    1
    45    22    47    1
    46    23    24   ar
    47    23    48    1
    48    24    25    1
    49    26    27    1
    50    27    28   ar
@<TRIPOS>SUBSTRUCTURE
     1 ZINC000426037318        1 TEMP              0 ****  ****    0 ROOT


##########                                Name:    ZINC001023148918
##########                DOCK_Rotatable_Bonds:                   6
##########                         Heavy_Atoms:                  25
##########                    Molecular_Weight:             348.402
##########                DOCK_Rotatable_Bonds:                   6
##########                       Formal_Charge:           0.0199999
##########                     HBond_Acceptors:                   8
##########                        HBond_Donors:                   2
##########                         Heavy_Atoms:                  25
##########                          Grid_Score:          -28.513275
##########                     Grid_vdw_energy:          -27.506578
##########                      Grid_es_energy:           -1.006696
##########           Internal_energy_repulsive:           13.242217

@<TRIPOS>MOLECULE
ZINC001023148918
 49 52 1 0 0
SMALL
USER_CHARGES


@<TRIPOS>ATOM
      1 C1        -10.2909    4.2661   61.4488 C.3     1  ZINC001023148918   -0.0700
      2 C2         -9.7679    2.9496   60.9345 C.2     1  ZINC001023148918    0.0200
      3 N3         -9.3503    1.9480   61.6657 N.2     1  ZINC001023148918   -0.2700
      4 N4         -8.9677    0.9691   60.9274 N.pl3   1  ZINC001023148918   -0.2500
      5 C5         -8.4435   -0.3065   61.4215 C.3     1  ZINC001023148918    0.0800
      6 C6         -9.1243    1.2989   59.6111 C.2     1  ZINC001023148918   -0.0400
      7 C7         -8.8060    0.4584   58.4459 C.2     1  ZINC001023148918    0.6000
      8 O8         -8.3399   -0.6535   58.6073 O.2     1  ZINC001023148918   -0.5300
      9 N9         -9.0309    0.9204   57.1999 N.am    1  ZINC001023148918   -0.7000
     10 C10        -8.7139    0.0835   56.0401 C.3     1  ZINC001023148918    0.1500
     11 H11        -7.8551   -0.5556   56.2450 H       1  ZINC001023148918    0.1200
     12 C12        -8.4726    0.9504   54.7790 C.3     1  ZINC001023148918    0.1000
     13 N13        -8.7757    0.0590   53.6446 N.am    1  ZINC001023148918   -0.6200
     14 C14        -8.2937    0.1894   52.3927 C.2     1  ZINC001023148918    0.5400
     15 O15        -8.6107   -0.6071   51.5348 O.2     1  ZINC001023148918   -0.5200
     16 C16        -7.3609    1.3249   52.0590 C.3     1  ZINC001023148918   -0.1400
     17 H17        -6.5738    1.4091   52.8083 H       1  ZINC001023148918    0.1100
     18 C18        -8.1419    2.6576   51.9310 C.3     1  ZINC001023148918   -0.1400
     19 C19        -7.8842    3.0676   50.4500 C.3     1  ZINC001023148918    0.0600
     20 H20        -8.6129    3.7562   50.0221 H       1  ZINC001023148918    0.1300
     21 C21        -6.4034    3.5509   50.4080 C.3     1  ZINC001023148918   -0.1500
     22 C22        -5.6068    2.2279   50.5414 C.3     1  ZINC001023148918   -0.1500
     23 C23        -6.7517    1.1391   50.6369 C.3     1  ZINC001023148918    0.0900
     24 H24        -6.4558    0.1251   50.3679 H       1  ZINC001023148918    0.1400
     25 O25        -7.7930    1.7563   49.8023 O.3     1  ZINC001023148918   -0.3600
     26 C26        -9.6900   -0.9961   54.1053 C.3     1  ZINC001023148918    0.0700
     27 C27        -9.9437   -0.7588   55.6094 C.3     1  ZINC001023148918    0.0900
     28 H28       -10.8663   -0.1985   55.7611 H       1  ZINC001023148918    0.0800
     29 O29        -9.9857   -1.9996   56.3170 O.3     1  ZINC001023148918   -0.5500
     30 C30        -9.6487    2.5797   59.5929 C.2     1  ZINC001023148918   -0.1800
     31 H31       -11.3688    4.1968   61.5948 H       1  ZINC001023148918    0.0800
     32 H32        -9.8100    4.5022   62.3981 H       1  ZINC001023148918    0.0700
     33 H33       -10.0720    5.0515   60.7253 H       1  ZINC001023148918    0.0800
     34 H34        -9.2718   -0.9846   61.6270 H       1  ZINC001023148918    0.0900
     35 H35        -7.7913   -0.7477   60.6678 H       1  ZINC001023148918    0.1100
     36 H36        -7.8774   -0.1365   62.3372 H       1  ZINC001023148918    0.0900
     37 H37        -9.4025    1.8070   57.0713 H       1  ZINC001023148918    0.4100
     38 H38        -9.1428    1.8100   54.7757 H       1  ZINC001023148918    0.0800
     39 H39        -7.4338    1.2781   54.7371 H       1  ZINC001023148918    0.0900
     40 H40        -9.2058    2.5004   52.1086 H       1  ZINC001023148918    0.0800
     41 H41        -7.7419    3.4068   52.6143 H       1  ZINC001023148918    0.0900
     42 H42        -6.1836    4.0400   49.4591 H       1  ZINC001023148918    0.0800
     43 H43        -6.1904    4.2159   51.2449 H       1  ZINC001023148918    0.0800
     44 H44        -4.9900    2.0578   49.6590 H       1  ZINC001023148918    0.0800
     45 H45        -4.9970    2.2338   51.4449 H       1  ZINC001023148918    0.0800
     46 H46       -10.6301   -0.9376   53.5566 H       1  ZINC001023148918    0.0800
     47 H47        -9.2322   -1.9741   53.9571 H       1  ZINC001023148918    0.0900
     48 H48       -10.8571   -2.4188   56.3245 H       1  ZINC001023148918    0.3900
     49 H49        -9.9051    3.1700   58.7257 H       1  ZINC001023148918    0.1600
@<TRIPOS>BOND
     1     1     2    1
     2     1    31    1
     3     1    32    1
     4     1    33    1
     5     2    30    1
     6     2     3    2
     7     3     4    1
     8     4     5    1
     9     4     6    1
    10     5    34    1
    11     5    35    1
    12     5    36    1
    13     6     7    1
    14     6    30    2
    15     7     8    2
    16     7     9   am
    17     9    10    1
    18     9    37    1
    19    10    11    1
    20    10    27    1
    21    10    12    1
    22    12    13    1
    23    12    38    1
    24    12    39    1
    25    13    14   am
    26    13    26    1
    27    14    15    2
    28    14    16    1
    29    16    17    1
    30    16    23    1
    31    16    18    1
    32    18    19    1
    33    18    40    1
    34    18    41    1
    35    19    20    1
    36    19    25    1
    37    19    21    1
    38    21    22    1
    39    21    42    1
    40    21    43    1
    41    22    23    1
    42    22    44    1
    43    22    45    1
    44    23    24    1
    45    23    25    1
    46    26    27    1
    47    26    46    1
    48    26    47    1
    49    27    28    1
    50    27    29    1
    51    29    48    1
    52    30    49    1
@<TRIPOS>SUBSTRUCTURE
     1 ZINC001023148918        1 TEMP              0 ****  ****    0 ROOT


##########                                Name:    ZINC000288921983
##########                DOCK_Rotatable_Bonds:                   6
##########                         Heavy_Atoms:                  26
##########                    Molecular_Weight:             356.428
##########                DOCK_Rotatable_Bonds:                   6
##########                       Formal_Charge:           0.0199997
##########                     HBond_Acceptors:                   8
##########                        HBond_Donors:                   1
##########                         Heavy_Atoms:                  26
##########                          Grid_Score:          -28.494741
##########                     Grid_vdw_energy:          -27.629391
##########                      Grid_es_energy:           -0.865351
##########           Internal_energy_repulsive:           62.152088

@<TRIPOS>MOLECULE
ZINC000288921983
 50 53 1 0 0
SMALL
USER_CHARGES


@<TRIPOS>ATOM
      1 C1         -8.8921    0.5006   62.1469 C.3     1  ZINC000288921983   -0.1400
      2 C2         -8.3522    1.8522   61.6752 C.3     1  ZINC000288921983   -0.0500
      3 C3         -8.2170    1.8430   60.1742 C.ar    1  ZINC000288921983    0.3000
      4 N4         -8.4359    2.9573   59.5053 N.ar    1  ZINC000288921983   -0.5000
      5 C5         -8.3275    2.9907   58.1875 C.ar    1  ZINC000288921983    0.1300
      6 C6         -7.9768    1.8266   57.5090 C.ar    1  ZINC000288921983    0.0500
      7 N7         -7.8507    1.8182   56.1147 N.am    1  ZINC000288921983   -0.6700
      8 C8         -8.6709    1.0522   55.3685 C.2     1  ZINC000288921983    0.7100
      9 O9         -9.5204    0.3683   55.9062 O.2     1  ZINC000288921983   -0.5500
     10 N10        -8.5495    1.0440   54.0262 N.am    1  ZINC000288921983   -0.6200
     11 C11        -7.5278    1.8648   53.3621 C.3     1  ZINC000288921983    0.1100
     12 C12        -6.6906    0.9652   52.4474 C.3     1  ZINC000288921983   -0.1400
     13 C13        -7.6179    0.2170   51.4869 C.3     1  ZINC000288921983   -0.1200
     14 C14        -8.5778   -0.6668   52.2866 C.3     1  ZINC000288921983   -0.1300
     15 C15        -9.4324    0.2097   53.1998 C.3     1  ZINC000288921983    0.2700
     16 H16       -10.0722    0.8524   52.5951 H       1  ZINC000288921983    0.1100
     17 C17       -10.2846   -0.6631   54.0847 C.2     1  ZINC000288921983    0.1700
     18 N18        -9.9751   -1.8490   54.5259 N.2     1  ZINC000288921983   -0.2500
     19 N19       -10.9365   -2.2982   55.2536 N.2     1  ZINC000288921983   -0.2700
     20 C20       -11.8920   -1.4140   55.3014 C.2     1  ZINC000288921983    0.1800
     21 C21       -13.1950   -1.5484   56.0466 C.3     1  ZINC000288921983   -0.0300
     22 C22       -13.3388   -2.8809   56.8005 C.3     1  ZINC000288921983   -0.1200
     23 C23       -12.6652   -2.1869   57.9961 C.3     1  ZINC000288921983   -0.1400
     24 C24       -13.1916   -0.8609   57.4221 C.3     1  ZINC000288921983   -0.1200
     25 O25       -11.5006   -0.3582   54.5683 O.3     1  ZINC000288921983   -0.2200
     26 C26        -7.7543    0.6713   58.2534 C.ar    1  ZINC000288921983    0.1600
     27 N27        -7.8780    0.7222   59.5693 N.ar    1  ZINC000288921983   -0.5000
     28 H28        -8.9898    0.5074   63.2325 H       1  ZINC000288921983    0.0700
     29 H29        -9.8679    0.3214   61.6954 H       1  ZINC000288921983    0.0600
     30 H30        -8.2031   -0.2898   61.8490 H       1  ZINC000288921983    0.0600
     31 H31        -9.0411    2.6427   61.9730 H       1  ZINC000288921983    0.0900
     32 H32        -7.3764    2.0314   62.1267 H       1  ZINC000288921983    0.0900
     33 H33        -8.5087    3.9072   57.6458 H       1  ZINC000288921983    0.1700
     34 H34        -7.1729    2.3637   55.6858 H       1  ZINC000288921983    0.4100
     35 H35        -8.0114    2.6405   52.7683 H       1  ZINC000288921983    0.0800
     36 H36        -6.8837    2.3239   54.1120 H       1  ZINC000288921983    0.0800
     37 H37        -5.9918    1.5766   51.8764 H       1  ZINC000288921983    0.0900
     38 H38        -6.1366    0.2470   53.0517 H       1  ZINC000288921983    0.0700
     39 H39        -8.1896    0.9360   50.9002 H       1  ZINC000288921983    0.0700
     40 H40        -7.0227   -0.4053   50.8186 H       1  ZINC000288921983    0.0800
     41 H41        -9.2222   -1.2170   51.6009 H       1  ZINC000288921983    0.0900
     42 H42        -8.0059   -1.3697   52.8924 H       1  ZINC000288921983    0.0900
     43 H43       -14.0607   -1.2959   55.4343 H       1  ZINC000288921983    0.1000
     44 H44       -14.3738   -3.1669   56.9881 H       1  ZINC000288921983    0.1000
     45 H45       -12.7456   -3.6900   56.3743 H       1  ZINC000288921983    0.0800
     46 H46       -13.1041   -2.4510   58.9582 H       1  ZINC000288921983    0.0700
     47 H47       -11.5780   -2.2643   57.9900 H       1  ZINC000288921983    0.1000
     48 H48       -12.4795   -0.0391   57.4978 H       1  ZINC000288921983    0.0700
     49 H49       -14.1863   -0.5946   57.7797 H       1  ZINC000288921983    0.1000
     50 H50        -7.4809   -0.2518   57.7641 H       1  ZINC000288921983    0.1800
@<TRIPOS>BOND
     1     1     2    1
     2     1    28    1
     3     1    29    1
     4     1    30    1
     5     2     3    1
     6     2    31    1
     7     2    32    1
     8     3    27   ar
     9     3     4   ar
    10     4     5   ar
    11     5     6   ar
    12     5    33    1
    13     6     7    1
    14     6    26   ar
    15     7     8   am
    16     7    34    1
    17     8     9    2
    18     8    10   am
    19    10    15    1
    20    10    11    1
    21    11    12    1
    22    11    35    1
    23    11    36    1
    24    12    13    1
    25    12    37    1
    26    12    38    1
    27    13    14    1
    28    13    39    1
    29    13    40    1
    30    14    15    1
    31    14    41    1
    32    14    42    1
    33    15    16    1
    34    15    17    1
    35    17    25    1
    36    17    18    2
    37    18    19    1
    38    19    20    2
    39    20    21    1
    40    20    25    1
    41    21    24    1
    42    21    22    1
    43    21    43    1
    44    22    23    1
    45    22    44    1
    46    22    45    1
    47    23    24    1
    48    23    46    1
    49    23    47    1
    50    24    48    1
    51    24    49    1
    52    26    27   ar
    53    26    50    1
@<TRIPOS>SUBSTRUCTURE
     1 ZINC000288921983        1 TEMP              0 ****  ****    0 ROOT


##########                                Name:    ZINC000541568816
##########                DOCK_Rotatable_Bonds:                   8
##########                         Heavy_Atoms:                  25
##########                    Molecular_Weight:             411.339
##########                DOCK_Rotatable_Bonds:                   8
##########                       Formal_Charge:          -0.0100007
##########                     HBond_Acceptors:                   5
##########                        HBond_Donors:                   1
##########                         Heavy_Atoms:                  25
##########                          Grid_Score:          -28.486420
##########                     Grid_vdw_energy:          -27.880455
##########                      Grid_es_energy:           -0.605964
##########           Internal_energy_repulsive:           20.049593

@<TRIPOS>MOLECULE
ZINC000541568816
 52 54 1 0 0
SMALL
USER_CHARGES


@<TRIPOS>ATOM
      1 C1        -12.0826    0.3301   60.9427 C.3     1  ZINC000541568816   -0.1500
      2 C2        -12.7073    0.5230   59.5594 C.3     1  ZINC000541568816    0.0600
      3 O3        -12.5175   -0.6607   58.7818 O.3     1  ZINC000541568816   -0.3700
      4 C4        -11.5010   -0.5439   57.7842 C.3     1  ZINC000541568816    0.0700
      5 H5        -11.0001    0.4239   57.8012 H       1  ZINC000541568816    0.0900
      6 C6        -11.9611   -0.9762   56.3808 C.3     1  ZINC000541568816   -0.1700
      7 C7        -10.5830   -1.6410   56.2168 C.3     1  ZINC000541568816    0.1500
      8 H8        -10.6217   -2.6105   55.7200 H       1  ZINC000541568816    0.1100
      9 N9         -9.5652   -0.7517   55.6515 N.am    1  ZINC000541568816   -0.7200
     10 C10        -9.4292   -0.6471   54.3146 C.2     1  ZINC000541568816    0.7100
     11 O11       -10.1521   -1.2896   53.5779 O.2     1  ZINC000541568816   -0.5800
     12 N12        -8.4918    0.1698   53.7946 N.am    1  ZINC000541568816   -0.6300
     13 C13        -7.6220    0.9454   54.6823 C.3     1  ZINC000541568816    0.1000
     14 C14        -8.3128    2.2593   55.0529 C.3     1  ZINC000541568816   -0.1800
     15 C15        -8.3428    0.2822   52.3415 C.3     1  ZINC000541568816    0.1700
     16 C16        -9.0834    1.5004   51.8533 C.ar    1  ZINC000541568816   -0.0700
     17 C17       -10.2798    1.8638   52.4419 C.ar    1  ZINC000541568816   -0.1000
     18 C18       -10.9594    2.9814   51.9940 C.ar    1  ZINC000541568816   -0.1000
     19 C19       -10.4424    3.7361   50.9579 C.ar    1  ZINC000541568816   -0.1200
     20 C20        -9.2457    3.3734   50.3685 C.ar    1  ZINC000541568816   -0.0900
     21 C21        -8.5629    2.2584   50.8196 C.ar    1  ZINC000541568816   -0.0900
     22 Br22       -6.9259    1.7617   50.0138 Br      1  ZINC000541568816   -0.0500
     23 C23       -10.5371   -1.7340   57.7471 C.3     1  ZINC000541568816    0.0800
     24 C24       -11.1091   -3.0393   58.3269 C.3     1  ZINC000541568816   -0.1200
     25 C25        -9.8284   -3.7556   58.8393 C.3     1  ZINC000541568816   -0.1600
     26 C26        -8.9716   -2.5447   59.2888 C.3     1  ZINC000541568816    0.0500
     27 O27        -9.2579   -1.5065   58.3353 O.3     1  ZINC000541568816   -0.3600
     28 H28       -12.5595   -0.5132   61.4424 H       1  ZINC000541568816    0.0600
     29 H29       -11.0160    0.1330   60.8354 H       1  ZINC000541568816    0.0600
     30 H30       -12.2275    1.2330   61.5359 H       1  ZINC000541568816    0.0700
     31 H31       -13.7740    0.7201   59.6668 H       1  ZINC000541568816    0.0500
     32 H32       -12.2305    1.3663   59.0598 H       1  ZINC000541568816    0.0500
     33 H33       -12.7890   -1.6851   56.3921 H       1  ZINC000541568816    0.1000
     34 H34       -12.1268   -0.1416   55.6996 H       1  ZINC000541568816    0.0800
     35 H35        -8.9893   -0.2382   56.2392 H       1  ZINC000541568816    0.4000
     36 H36        -7.4225    0.3719   55.5875 H       1  ZINC000541568816    0.0900
     37 H37        -6.6822    1.1600   54.1735 H       1  ZINC000541568816    0.0700
     38 H38        -9.2526    2.0448   55.5616 H       1  ZINC000541568816    0.0600
     39 H39        -7.6656    2.8364   55.7134 H       1  ZINC000541568816    0.0700
     40 H40        -8.5123    2.8328   54.1477 H       1  ZINC000541568816    0.0600
     41 H41        -7.2860    0.3747   52.0908 H       1  ZINC000541568816    0.1000
     42 H42        -8.7528   -0.6079   51.8643 H       1  ZINC000541568816    0.1100
     43 H43       -10.6842    1.2744   53.2515 H       1  ZINC000541568816    0.1300
     44 H44       -11.8948    3.2648   52.4537 H       1  ZINC000541568816    0.1300
     45 H45       -10.9736    4.6091   50.6083 H       1  ZINC000541568816    0.1300
     46 H46        -8.8419    3.9629   49.5586 H       1  ZINC000541568816    0.1300
     47 H47       -11.7945   -2.8325   59.1488 H       1  ZINC000541568816    0.1000
     48 H48       -11.5999   -3.6273   57.5514 H       1  ZINC000541568816    0.0900
     49 H49       -10.0548   -4.4104   59.6808 H       1  ZINC000541568816    0.0900
     50 H50        -9.3387   -4.3064   58.0363 H       1  ZINC000541568816    0.0800
     51 H51        -9.2608   -2.2279   60.2909 H       1  ZINC000541568816    0.0600
     52 H52        -7.9123   -2.8004   59.2630 H       1  ZINC000541568816    0.0900
@<TRIPOS>BOND
     1     1     2    1
     2     1    28    1
     3     1    29    1
     4     1    30    1
     5     2     3    1
     6     2    31    1
     7     2    32    1
     8     3     4    1
     9     4     5    1
    10     4    23    1
    11     4     6    1
    12     6     7    1
    13     6    33    1
    14     6    34    1
    15     7     8    1
    16     7     9    1
    17     7    23    1
    18     9    10   am
    19     9    35    1
    20    10    11    2
    21    10    12   am
    22    12    13    1
    23    12    15    1
    24    13    14    1
    25    13    36    1
    26    13    37    1
    27    14    38    1
    28    14    39    1
    29    14    40    1
    30    15    16    1
    31    15    41    1
    32    15    42    1
    33    16    21   ar
    34    16    17   ar
    35    17    18   ar
    36    17    43    1
    37    18    19   ar
    38    18    44    1
    39    19    20   ar
    40    19    45    1
    41    20    21   ar
    42    20    46    1
    43    21    22    1
    44    23    27    1
    45    23    24    1
    46    24    25    1
    47    24    47    1
    48    24    48    1
    49    25    26    1
    50    25    49    1
    51    25    50    1
    52    26    27    1
    53    26    51    1
    54    26    52    1
@<TRIPOS>SUBSTRUCTURE
     1 ZINC000541568816        1 TEMP              0 ****  ****    0 ROOT


##########                                Name:    ZINC000822206030
##########                DOCK_Rotatable_Bonds:                   7
##########                         Heavy_Atoms:                  29
##########                    Molecular_Weight:             391.448
##########                DOCK_Rotatable_Bonds:                   7
##########                       Formal_Charge:         -0.00999995
##########                     HBond_Acceptors:                   7
##########                        HBond_Donors:                   1
##########                         Heavy_Atoms:                  29
##########                          Grid_Score:          -28.473541
##########                     Grid_vdw_energy:          -28.235424
##########                      Grid_es_energy:           -0.238117
##########           Internal_energy_repulsive:           27.713001

@<TRIPOS>MOLECULE
ZINC000822206030
 51 55 1 0 0
SMALL
USER_CHARGES


@<TRIPOS>ATOM
      1 C1         -9.7970    2.6193   59.9047 C.3     1  ZINC000822206030   -0.1300
      2 C2         -8.3672    2.8545   59.4905 C.ar    1  ZINC000822206030   -0.0400
      3 C3         -7.5412    3.6373   60.2727 C.ar    1  ZINC000822206030   -0.1500
      4 C4         -6.2272    3.8542   59.8923 C.ar    1  ZINC000822206030    0.1100
      5 F5         -5.4208    4.6206   60.6587 F       1  ZINC000822206030   -0.1400
      6 C6         -5.7389    3.2861   58.7279 C.ar    1  ZINC000822206030   -0.1500
      7 C7         -6.5620    2.5025   57.9426 C.ar    1  ZINC000822206030   -0.0800
      8 C8         -7.8778    2.2796   58.3250 C.ar    1  ZINC000822206030    0.1100
      9 N9         -8.7137    1.4851   57.5307 N.am    1  ZINC000822206030   -0.5600
     10 C10        -9.3957    2.0690   56.3729 C.3     1  ZINC000822206030    0.1500
     11 C11        -8.4652    2.0656   55.1876 C.ar    1  ZINC000822206030   -0.0900
     12 C12        -7.4897    3.0397   55.0744 C.ar    1  ZINC000822206030   -0.1000
     13 C13        -6.6346    3.0410   53.9910 C.ar    1  ZINC000822206030   -0.0800
     14 C14        -6.7552    2.0590   53.0105 C.ar    1  ZINC000822206030   -0.0100
     15 C15        -5.8379    2.0551   51.8431 C.2     1  ZINC000822206030    0.2200
     16 N16        -5.7100    1.0984   50.9455 N.2     1  ZINC000822206030   -0.2900
     17 N17        -4.8152    1.4713   50.0964 N.pl3   1  ZINC000822206030   -0.2300
     18 N18        -4.3723    2.6337   50.4275 N.2     1  ZINC000822206030   -0.0500
     19 N19        -4.9827    3.0264   51.4937 N.2     1  ZINC000822206030   -0.2700
     20 C20        -7.7394    1.0803   53.1292 C.ar    1  ZINC000822206030   -0.0800
     21 C21        -8.5859    1.0852   54.2194 C.ar    1  ZINC000822206030   -0.0900
     22 C22        -8.8910    0.1833   57.8313 C.2     1  ZINC000822206030    0.5500
     23 O23        -9.6163   -0.5045   57.1442 O.2     1  ZINC000822206030   -0.5000
     24 C24        -8.1881   -0.4178   59.0211 C.3     1  ZINC000822206030   -0.1900
     25 H25        -7.2905    0.1055   59.3506 H       1  ZINC000822206030    0.1200
     26 C26        -8.2078   -1.9415   59.1577 C.3     1  ZINC000822206030   -0.1400
     27 C27        -9.0555   -1.0777   60.0949 C.3     1  ZINC000822206030   -0.0900
     28 H28        -8.7284   -0.9889   61.1309 H       1  ZINC000822206030    0.1100
     29 C29       -10.5701   -1.0777   59.8788 C.3     1  ZINC000822206030   -0.1100
     30 C30       -11.1688   -2.2316   59.0721 C.3     1  ZINC000822206030   -0.2000
     31 C31       -11.3845   -2.1633   60.5853 C.3     1  ZINC000822206030   -0.1200
     32 H32        -9.8512    1.7324   60.5360 H       1  ZINC000822206030    0.0900
     33 H33       -10.1612    3.4835   60.4603 H       1  ZINC000822206030    0.0700
     34 H34       -10.4127    2.4719   59.0174 H       1  ZINC000822206030    0.0700
     35 H35        -7.9200    4.0809   61.1816 H       1  ZINC000822206030    0.1400
     36 H36        -4.7139    3.4561   58.4331 H       1  ZINC000822206030    0.1400
     37 H37        -6.1808    2.0599   57.0343 H       1  ZINC000822206030    0.1400
     38 H38       -10.2835    1.4811   56.1397 H       1  ZINC000822206030    0.1000
     39 H39        -9.6883    3.0936   56.6023 H       1  ZINC000822206030    0.0900
     40 H40        -7.3973    3.8009   55.8351 H       1  ZINC000822206030    0.1300
     41 H41        -5.8735    3.8022   53.9035 H       1  ZINC000822206030    0.1400
     42 H42        -4.5214    0.9567   49.3284 H       1  ZINC000822206030    0.4800
     43 H43        -7.8374    0.3169   52.3716 H       1  ZINC000822206030    0.1300
     44 H44        -9.3493    0.3268   54.3126 H       1  ZINC000822206030    0.1400
     45 H45        -8.7291   -2.5092   58.3870 H       1  ZINC000822206030    0.1000
     46 H46        -7.3232   -2.4206   59.5775 H       1  ZINC000822206030    0.1000
     47 H47       -11.0293   -0.0952   59.7694 H       1  ZINC000822206030    0.1000
     48 H48       -12.0220   -2.0085   58.4315 H       1  ZINC000822206030    0.0900
     49 H49       -10.4836   -2.9909   58.6952 H       1  ZINC000822206030    0.0900
     50 H50       -10.8412   -2.8777   61.2038 H       1  ZINC000822206030    0.0800
     51 H51       -12.3796   -1.8953   60.9401 H       1  ZINC000822206030    0.0900
@<TRIPOS>BOND
     1     1     2    1
     2     1    32    1
     3     1    33    1
     4     1    34    1
     5     2     8   ar
     6     2     3   ar
     7     3     4   ar
     8     3    35    1
     9     4     5    1
    10     4     6   ar
    11     6     7   ar
    12     6    36    1
    13     7     8   ar
    14     7    37    1
    15     8     9    1
    16     9    10    1
    17     9    22   am
    18    10    11    1
    19    10    38    1
    20    10    39    1
    21    11    21   ar
    22    11    12   ar
    23    12    13   ar
    24    12    40    1
    25    13    14   ar
    26    13    41    1
    27    14    15    1
    28    14    20   ar
    29    15    19    1
    30    15    16    2
    31    16    17    1
    32    17    18    1
    33    17    42    1
    34    18    19    2
    35    20    21   ar
    36    20    43    1
    37    21    44    1
    38    22    23    2
    39    22    24    1
    40    24    25    1
    41    24    27    1
    42    24    26    1
    43    26    27    1
    44    26    45    1
    45    26    46    1
    46    27    28    1
    47    27    29    1
    48    29    31    1
    49    29    30    1
    50    29    47    1
    51    30    31    1
    52    30    48    1
    53    30    49    1
    54    31    50    1
    55    31    51    1
@<TRIPOS>SUBSTRUCTURE
     1 ZINC000822206030        1 TEMP              0 ****  ****    0 ROOT


##########                                Name:    ZINC000156038173
##########                DOCK_Rotatable_Bonds:                  10
##########                         Heavy_Atoms:                  27
##########                    Molecular_Weight:             396.357
##########                DOCK_Rotatable_Bonds:                  10
##########                       Formal_Charge:         -0.00999981
##########                     HBond_Acceptors:                  10
##########                        HBond_Donors:                   1
##########                         Heavy_Atoms:                  27
##########                          Grid_Score:          -28.430336
##########                     Grid_vdw_energy:          -26.945927
##########                      Grid_es_energy:           -1.484408
##########           Internal_energy_repulsive:           40.010147

@<TRIPOS>MOLECULE
ZINC000156038173
 48 48 1 0 0
SMALL
USER_CHARGES


@<TRIPOS>ATOM
      1 C1         -6.8559    1.8427   57.5184 C.3     1  ZINC000156038173    0.0700
      2 N2         -8.1266    1.4376   56.9123 N.am    1  ZINC000156038173   -0.6300
      3 C3         -8.4017    1.7527   55.5082 C.3     1  ZINC000156038173    0.1500
      4 C4         -8.0587    0.5423   54.6374 C.3     1  ZINC000156038173   -0.1400
      5 C5         -7.9951    0.9652   53.1923 C.2     1  ZINC000156038173    0.4700
      6 O6         -9.0058    1.0143   52.5321 O.2     1  ZINC000156038173   -0.5000
      7 O7         -6.8155    1.2873   52.6385 O.3     1  ZINC000156038173   -0.3500
      8 C8         -6.8375    1.7482   51.2618 C.3     1  ZINC000156038173    0.1200
      9 C9         -7.4014    0.6453   50.3638 C.3     1  ZINC000156038173   -0.1800
     10 C10        -7.7197    2.9937   51.1550 C.3     1  ZINC000156038173   -0.1400
     11 C11        -5.4147    2.0912   50.8161 C.3     1  ZINC000156038173   -0.1800
     12 C12        -9.0425    0.7751   57.6462 C.2     1  ZINC000156038173    0.7100
     13 O13       -10.0965    0.4376   57.1427 O.2     1  ZINC000156038173   -0.5700
     14 N14        -8.7900    0.4867   58.9383 N.am    1  ZINC000156038173   -0.7400
     15 C15        -9.7848   -0.2349   59.7357 C.3     1  ZINC000156038173    0.1700
     16 H16       -10.7858    0.0397   59.4029 H       1  ZINC000156038173    0.1500
     17 C17        -9.6220    0.1271   61.1895 C.ar    1  ZINC000156038173   -0.1300
     18 C18        -8.4208   -0.1107   61.8305 C.ar    1  ZINC000156038173   -0.0700
     19 C19        -8.2699    0.2208   63.1643 C.ar    1  ZINC000156038173   -0.1000
     20 C20        -9.3197    0.7907   63.8594 C.ar    1  ZINC000156038173   -0.1100
     21 C21       -10.5239    1.0301   63.2203 C.ar    1  ZINC000156038173    0.0700
     22 F22       -11.5507    1.5871   63.8991 F       1  ZINC000156038173   -0.1200
     23 C23       -10.6735    0.7029   61.8813 C.ar    1  ZINC000156038173    0.1000
     24 F24       -11.8480    0.9356   61.2554 F       1  ZINC000156038173   -0.1200
     25 C25        -9.5842   -1.7414   59.5597 C.3     1  ZINC000156038173    0.4500
     26 F26        -8.2435   -2.0010   59.2561 F       1  ZINC000156038173   -0.1700
     27 F27        -9.9298   -2.3996   60.7449 F       1  ZINC000156038173   -0.1600
     28 F28       -10.3959   -2.2013   58.5172 F       1  ZINC000156038173   -0.1700
     29 H29        -6.9608    2.8373   57.9517 H       1  ZINC000156038173    0.0600
     30 H30        -6.5834    1.1330   58.2996 H       1  ZINC000156038173    0.0700
     31 H31        -6.0781    1.8591   56.7550 H       1  ZINC000156038173    0.0800
     32 H32        -9.4574    1.9972   55.3909 H       1  ZINC000156038173    0.1000
     33 H33        -7.7951    2.6047   55.2014 H       1  ZINC000156038173    0.0900
     34 H34        -7.0929    0.1385   54.9406 H       1  ZINC000156038173    0.1100
     35 H35        -8.8264   -0.2219   54.7588 H       1  ZINC000156038173    0.1100
     36 H36        -8.4151    0.4009   50.6813 H       1  ZINC000156038173    0.0600
     37 H37        -7.4180    0.9913   49.3302 H       1  ZINC000156038173    0.0700
     38 H38        -6.7730   -0.2420   50.4398 H       1  ZINC000156038173    0.0800
     39 H39        -7.3180    3.7794   51.7948 H       1  ZINC000156038173    0.0700
     40 H40        -7.7363    3.3397   50.1215 H       1  ZINC000156038173    0.0800
     41 H41        -8.7334    2.7493   51.4727 H       1  ZINC000156038173    0.0700
     42 H42        -4.7862    1.2040   50.8921 H       1  ZINC000156038173    0.0800
     43 H43        -5.4312    2.4373   49.7825 H       1  ZINC000156038173    0.0700
     44 H44        -5.0130    2.8770   51.4559 H       1  ZINC000156038173    0.0600
     45 H45        -7.9497    0.7570   59.3404 H       1  ZINC000156038173    0.4100
     46 H46        -7.5994   -0.5563   61.2891 H       1  ZINC000156038173    0.1400
     47 H47        -7.3307    0.0339   63.6635 H       1  ZINC000156038173    0.1500
     48 H48        -9.2007    1.0488   64.9013 H       1  ZINC000156038173    0.1500
@<TRIPOS>BOND
     1     1     2    1
     2     1    29    1
     3     1    30    1
     4     1    31    1
     5     2     3    1
     6     2    12   am
     7     3     4    1
     8     3    32    1
     9     3    33    1
    10     4     5    1
    11     4    34    1
    12     4    35    1
    13     5     6    2
    14     5     7    1
    15     7     8    1
    16     8     9    1
    17     8    10    1
    18     8    11    1
    19     9    36    1
    20     9    37    1
    21     9    38    1
    22    10    39    1
    23    10    40    1
    24    10    41    1
    25    11    42    1
    26    11    43    1
    27    11    44    1
    28    12    13    2
    29    12    14   am
    30    14    15    1
    31    14    45    1
    32    15    16    1
    33    15    17    1
    34    15    25    1
    35    17    23   ar
    36    17    18   ar
    37    18    19   ar
    38    18    46    1
    39    19    20   ar
    40    19    47    1
    41    20    21   ar
    42    20    48    1
    43    21    22    1
    44    21    23   ar
    45    23    24    1
    46    25    26    1
    47    25    27    1
    48    25    28    1
@<TRIPOS>SUBSTRUCTURE
     1 ZINC000156038173        1 TEMP              0 ****  ****    0 ROOT


##########                                Name:    ZINC000673213454
##########                DOCK_Rotatable_Bonds:                   7
##########                         Heavy_Atoms:                  26
##########                    Molecular_Weight:             360.453
##########                DOCK_Rotatable_Bonds:                   7
##########                       Formal_Charge:          -0.0100001
##########                     HBond_Acceptors:                   6
##########                        HBond_Donors:                   1
##########                         Heavy_Atoms:                  26
##########                          Grid_Score:          -28.416866
##########                     Grid_vdw_energy:          -28.612911
##########                      Grid_es_energy:            0.196046
##########           Internal_energy_repulsive:           16.221245

@<TRIPOS>MOLECULE
ZINC000673213454
 54 56 1 0 0
SMALL
USER_CHARGES


@<TRIPOS>ATOM
      1 C1        -10.2498   -2.8872   59.2522 C.3     1  ZINC000673213454   -0.1700
      2 C2        -10.7373   -1.7369   58.3689 C.3     1  ZINC000673213454    0.1400
      3 H3        -10.9056   -0.8528   58.9837 H       1  ZINC000673213454    0.0900
      4 C4        -12.0453   -2.1386   57.6843 C.3     1  ZINC000673213454   -0.1200
      5 C5        -13.1676   -2.1961   58.7226 C.3     1  ZINC000673213454   -0.1300
      6 H6        -12.8837   -2.8404   59.5546 H       1  ZINC000673213454    0.0800
      7 C7        -14.4811   -2.6963   58.0735 C.3     1  ZINC000673213454   -0.1500
      8 C8        -15.5407   -1.7812   58.7385 C.3     1  ZINC000673213454    0.0500
      9 O9        -14.8684   -0.5077   58.8425 O.3     1  ZINC000673213454   -0.3800
     10 C10       -13.5077   -0.7807   59.2282 C.3     1  ZINC000673213454    0.0500
     11 N11        -9.7254   -1.4393   57.3522 N.am    1  ZINC000673213454   -0.6900
     12 C12        -9.6310   -0.1967   56.8388 C.2     1  ZINC000673213454    0.5100
     13 O13       -10.3833    0.6759   57.2198 O.2     1  ZINC000673213454   -0.5100
     14 C14        -8.5999    0.1065   55.8004 C.2     1  ZINC000673213454    0.5000
     15 O15        -7.5283    0.5726   56.1273 O.2     1  ZINC000673213454   -0.5200
     16 N16        -8.8601   -0.1380   54.5008 N.am    1  ZINC000673213454   -0.5800
     17 C17       -10.1716   -0.7051   54.1340 C.3     1  ZINC000673213454    0.1100
     18 C18       -10.7284   -0.0336   52.8701 C.3     1  ZINC000673213454   -0.1700
     19 C19       -10.4407    1.4535   52.9165 C.3     1  ZINC000673213454    0.0800
     20 O20        -9.1962    1.6986   52.2747 O.3     1  ZINC000673213454   -0.3800
     21 C21        -8.0282    1.6161   53.0054 C.3     1  ZINC000673213454    0.1500
     22 H22        -8.0828    2.2960   53.8555 H       1  ZINC000673213454    0.0600
     23 C23        -6.8612    1.9972   52.1314 C.ar    1  ZINC000673213454   -0.0800
     24 C24        -6.7746    1.5077   50.8416 C.ar    1  ZINC000673213454   -0.0900
     25 C25        -5.7041    1.8574   50.0400 C.ar    1  ZINC000673213454   -0.1300
     26 C26        -4.7202    2.6966   50.5282 C.ar    1  ZINC000673213454   -0.1200
     27 C27        -4.8071    3.1868   51.8177 C.ar    1  ZINC000673213454   -0.1300
     28 C28        -5.8799    2.8406   52.6179 C.ar    1  ZINC000673213454   -0.0900
     29 C29        -7.8417    0.1720   53.5145 C.3     1  ZINC000673213454    0.0700
     30 H30       -10.0815   -3.7713   58.6374 H       1  ZINC000673213454    0.0600
     31 H31        -9.3180   -2.6010   59.7400 H       1  ZINC000673213454    0.0600
     32 H32       -11.0028   -3.1087   60.0086 H       1  ZINC000673213454    0.0700
     33 H33       -12.2955   -1.4036   56.9192 H       1  ZINC000673213454    0.0800
     34 H34       -11.9275   -3.1186   57.2219 H       1  ZINC000673213454    0.0900
     35 H35       -14.4622   -2.5487   56.9938 H       1  ZINC000673213454    0.0800
     36 H36       -14.6621   -3.7428   58.3186 H       1  ZINC000673213454    0.0800
     37 H37       -16.4258   -1.6976   58.1077 H       1  ZINC000673213454    0.0900
     38 H38       -15.8065   -2.1568   59.7266 H       1  ZINC000673213454    0.0600
     39 H39       -13.4146   -0.7392   60.3134 H       1  ZINC000673213454    0.0600
     40 H40       -12.8390   -0.0526   58.7689 H       1  ZINC000673213454    0.0900
     41 H41        -9.1233   -2.1365   57.0485 H       1  ZINC000673213454    0.4100
     42 H42       -10.0609   -1.7741   53.9522 H       1  ZINC000673213454    0.0800
     43 H43       -10.8698   -0.5534   54.9572 H       1  ZINC000673213454    0.0900
     44 H44       -10.2546   -0.4677   51.9897 H       1  ZINC000673213454    0.0800
     45 H45       -11.8053   -0.1936   52.8186 H       1  ZINC000673213454    0.0900
     46 H46       -11.2321    1.9951   52.3984 H       1  ZINC000673213454    0.1000
     47 H47       -10.3879    1.7833   53.9541 H       1  ZINC000673213454    0.0500
     48 H48        -7.5434    0.8520   50.4602 H       1  ZINC000673213454    0.1300
     49 H49        -5.6362    1.4744   49.0324 H       1  ZINC000673213454    0.1200
     50 H50        -3.8834    2.9692   49.9022 H       1  ZINC000673213454    0.1200
     51 H51        -4.0382    3.8423   52.1993 H       1  ZINC000673213454    0.1200
     52 H52        -5.9478    3.2236   53.6254 H       1  ZINC000673213454    0.1300
     53 H53        -6.8563    0.0718   53.9696 H       1  ZINC000673213454    0.1200
     54 H54        -7.9275   -0.5218   52.6782 H       1  ZINC000673213454    0.0800
@<TRIPOS>BOND
     1     1     2    1
     2     1    30    1
     3     1    31    1
     4     1    32    1
     5     2     3    1
     6     2     4    1
     7     2    11    1
     8     4     5    1
     9     4    33    1
    10     4    34    1
    11     5     6    1
    12     5    10    1
    13     5     7    1
    14     7     8    1
    15     7    35    1
    16     7    36    1
    17     8     9    1
    18     8    37    1
    19     8    38    1
    20     9    10    1
    21    10    39    1
    22    10    40    1
    23    11    12   am
    24    11    41    1
    25    12    13    2
    26    12    14    1
    27    14    15    2
    28    14    16   am
    29    16    29    1
    30    16    17    1
    31    17    18    1
    32    17    42    1
    33    17    43    1
    34    18    19    1
    35    18    44    1
    36    18    45    1
    37    19    20    1
    38    19    46    1
    39    19    47    1
    40    20    21    1
    41    21    22    1
    42    21    23    1
    43    21    29    1
    44    23    28   ar
    45    23    24   ar
    46    24    25   ar
    47    24    48    1
    48    25    26   ar
    49    25    49    1
    50    26    27   ar
    51    26    50    1
    52    27    28   ar
    53    27    51    1
    54    28    52    1
    55    29    53    1
    56    29    54    1
@<TRIPOS>SUBSTRUCTURE
     1 ZINC000673213454        1 TEMP              0 ****  ****    0 ROOT


##########                                Name:    ZINC001345266033
##########                DOCK_Rotatable_Bonds:                   4
##########                         Heavy_Atoms:                  29
##########                    Molecular_Weight:               389.5
##########                DOCK_Rotatable_Bonds:                   4
##########                       Formal_Charge:          -0.0100001
##########                     HBond_Acceptors:                   6
##########                        HBond_Donors:                   0
##########                         Heavy_Atoms:                  29
##########                          Grid_Score:          -28.325563
##########                     Grid_vdw_energy:          -28.228840
##########                      Grid_es_energy:           -0.096723
##########           Internal_energy_repulsive:           10.427923

@<TRIPOS>MOLECULE
ZINC001345266033
 56 61 1 0 0
SMALL
USER_CHARGES


@<TRIPOS>ATOM
      1 C1         -9.6547    4.3623   50.5540 C.ar    1  ZINC001345266033   -0.1100
      2 C2        -10.5200    3.8827   51.5339 C.ar    1  ZINC001345266033   -0.0900
      3 C3        -10.3186    2.6632   52.1122 C.ar    1  ZINC001345266033   -0.1100
      4 C4         -9.2284    1.8863   51.7135 C.ar    1  ZINC001345266033    0.0000
      5 C5         -8.3445    2.3706   50.7151 C.ar    1  ZINC001345266033   -0.1100
      6 C6         -8.5820    3.6297   50.1423 C.ar    1  ZINC001345266033   -0.0900
      7 C7         -7.2568    1.5690   50.3327 C.ar    1  ZINC001345266033    0.1700
      8 N8         -7.0579    0.3961   50.8841 N.ar    1  ZINC001345266033   -0.4800
      9 C9         -7.8400   -0.1175   51.8189 C.ar    1  ZINC001345266033    0.0900
     10 C10        -8.9512    0.5706   52.2887 C.ar    1  ZINC001345266033   -0.0700
     11 C11        -9.8212   -0.0054   53.3316 C.2     1  ZINC001345266033    0.2300
     12 N12       -11.0058   -0.5445   53.1508 N.2     1  ZINC001345266033   -0.2600
     13 N13       -11.4809   -0.9448   54.2757 N.2     1  ZINC001345266033   -0.3000
     14 C14       -10.6299   -0.6863   55.2431 C.2     1  ZINC001345266033    0.3600
     15 N15       -10.8015   -0.9748   56.5855 N.3     1  ZINC001345266033   -0.4600
     16 C16       -12.1707   -0.6703   57.0180 C.3     1  ZINC001345266033    0.0600
     17 C17       -12.2737   -0.7860   58.5401 C.3     1  ZINC001345266033   -0.1100
     18 C18       -11.9672   -2.2291   58.9580 C.3     1  ZINC001345266033   -0.0800
     19 C19       -10.6065   -2.6257   58.3754 C.3     1  ZINC001345266033   -0.1300
     20 C20        -9.3738   -2.4408   59.2589 C.3     1  ZINC001345266033   -0.1600
     21 C21        -9.9060   -3.8462   58.9699 C.3     1  ZINC001345266033   -0.1700
     22 C22       -10.4519   -2.3739   56.8727 C.3     1  ZINC001345266033    0.1100
     23 N23        -9.5430   -0.0855   54.6772 N.pl3   1  ZINC001345266033   -0.4600
     24 C24        -8.3353    0.3842   55.3609 C.3     1  ZINC001345266033    0.1000
     25 C25        -8.7285    1.3234   56.5029 C.3     1  ZINC001345266033   -0.1400
     26 H26        -9.3542    0.8012   57.2268 H       1  ZINC001345266033    0.1000
     27 C27        -9.4631    2.5695   55.9511 C.3     1  ZINC001345266033   -0.1500
     28 C28        -8.8691    3.7076   56.8195 C.3     1  ZINC001345266033    0.0500
     29 O29        -7.4879    3.3203   56.9834 O.3     1  ZINC001345266033   -0.3700
     30 C30        -7.4723    1.8945   57.1885 C.3     1  ZINC001345266033    0.0300
     31 H31        -9.8394    5.3291   50.1095 H       1  ZINC001345266033    0.1300
     32 H32       -11.3625    4.4847   51.8410 H       1  ZINC001345266033    0.1300
     33 H33       -10.9961    2.3020   52.8717 H       1  ZINC001345266033    0.1600
     34 H34        -7.9201    4.0147   49.3808 H       1  ZINC001345266033    0.1400
     35 H35        -6.5749    1.9233   49.5738 H       1  ZINC001345266033    0.1700
     36 H36        -7.6102   -1.0916   52.2248 H       1  ZINC001345266033    0.1700
     37 H37       -12.4295    0.3438   56.7137 H       1  ZINC001345266033    0.0700
     38 H38       -12.8620   -1.3738   56.5539 H       1  ZINC001345266033    0.0500
     39 H39       -11.5553   -0.1116   59.0061 H       1  ZINC001345266033    0.0800
     40 H40       -13.2821   -0.5213   58.8581 H       1  ZINC001345266033    0.0800
     41 H41       -11.9335   -2.2962   60.0455 H       1  ZINC001345266033    0.0700
     42 H42       -12.7392   -2.8942   58.5710 H       1  ZINC001345266033    0.0700
     43 H43        -8.4451   -2.1441   58.7715 H       1  ZINC001345266033    0.0900
     44 H44        -9.5281   -2.0403   60.2609 H       1  ZINC001345266033    0.0900
     45 H45       -10.4105   -4.3704   59.7816 H       1  ZINC001345266033    0.1000
     46 H46        -9.3274   -4.4741   58.2923 H       1  ZINC001345266033    0.1000
     47 H47       -11.1180   -3.0373   56.3210 H       1  ZINC001345266033    0.0600
     48 H48        -9.4199   -2.5607   56.5756 H       1  ZINC001345266033    0.0800
     49 H49        -7.7906   -0.4696   55.7639 H       1  ZINC001345266033    0.1100
     50 H50        -7.7015    0.9183   54.6531 H       1  ZINC001345266033    0.1100
     51 H51        -9.2311    2.7227   54.8972 H       1  ZINC001345266033    0.0800
     52 H52       -10.5393    2.4856   56.1029 H       1  ZINC001345266033    0.0900
     53 H53        -8.9407    4.6636   56.3007 H       1  ZINC001345266033    0.1000
     54 H54        -9.3715    3.7554   57.7856 H       1  ZINC001345266033    0.0600
     55 H55        -7.4957    1.6733   58.2555 H       1  ZINC001345266033    0.0600
     56 H56        -6.5771    1.4651   56.7385 H       1  ZINC001345266033    0.0900
@<TRIPOS>BOND
     1     1     6   ar
     2     1     2   ar
     3     1    31    1
     4     2     3   ar
     5     2    32    1
     6     3     4   ar
     7     3    33    1
     8     4    10   ar
     9     4     5   ar
    10     5     6   ar
    11     5     7   ar
    12     6    34    1
    13     7     8   ar
    14     7    35    1
    15     8     9   ar
    16     9    10   ar
    17     9    36    1
    18    10    11    1
    19    11    23    1
    20    11    12    2
    21    12    13    1
    22    13    14    2
    23    14    15    1
    24    14    23    1
    25    15    22    1
    26    15    16    1
    27    16    17    1
    28    16    37    1
    29    16    38    1
    30    17    18    1
    31    17    39    1
    32    17    40    1
    33    18    19    1
    34    18    41    1
    35    18    42    1
    36    19    21    1
    37    19    20    1
    38    19    22    1
    39    20    21    1
    40    20    43    1
    41    20    44    1
    42    21    45    1
    43    21    46    1
    44    22    47    1
    45    22    48    1
    46    23    24    1
    47    24    25    1
    48    24    49    1
    49    24    50    1
    50    25    26    1
    51    25    30    1
    52    25    27    1
    53    27    28    1
    54    27    51    1
    55    27    52    1
    56    28    29    1
    57    28    53    1
    58    28    54    1
    59    29    30    1
    60    30    55    1
    61    30    56    1
@<TRIPOS>SUBSTRUCTURE
     1 ZINC001345266033        1 TEMP              0 ****  ****    0 ROOT


##########                                Name:    ZINC000550011575
##########                DOCK_Rotatable_Bonds:                   6
##########                         Heavy_Atoms:                  28
##########                    Molecular_Weight:             423.935
##########                DOCK_Rotatable_Bonds:                   6
##########                       Formal_Charge:          -0.0100002
##########                     HBond_Acceptors:                   7
##########                        HBond_Donors:                   0
##########                         Heavy_Atoms:                  28
##########                          Grid_Score:          -28.323345
##########                     Grid_vdw_energy:          -28.459415
##########                      Grid_es_energy:            0.136069
##########           Internal_energy_repulsive:           39.788445

@<TRIPOS>MOLECULE
ZINC000550011575
 51 53 1 0 0
SMALL
USER_CHARGES


@<TRIPOS>ATOM
      1 C1        -10.6831    0.8274   52.8673 C.3     1  ZINC000550011575   -0.1400
      2 C2         -9.6600    0.9171   54.0014 C.3     1  ZINC000550011575   -0.6100
      3 H3         -9.5599    1.9549   54.3192 H       1  ZINC000550011575    0.1500
      4 C4        -10.1241    0.0782   55.1642 C.2     1  ZINC000550011575    0.5400
      5 O5         -9.6040   -0.9953   55.3832 O.2     1  ZINC000550011575   -0.5100
      6 N6        -11.1172    0.5208   55.9605 N.am    1  ZINC000550011575   -0.6000
      7 C7        -11.7468    1.8167   55.6948 C.3     1  ZINC000550011575    0.0600
      8 C8        -11.5671   -0.2939   57.0919 C.3     1  ZINC000550011575    0.1500
      9 C9        -10.3884   -0.6321   57.9678 C.ar    1  ZINC000550011575   -0.1500
     10 C10       -10.0087   -1.9521   58.1388 C.ar    1  ZINC000550011575    0.1400
     11 F11       -10.6949   -2.9382   57.5205 F       1  ZINC000550011575   -0.1100
     12 C12        -8.9250   -2.2614   58.9435 C.ar    1  ZINC000550011575   -0.1500
     13 C13        -8.2232   -1.2525   59.5752 C.ar    1  ZINC000550011575   -0.0700
     14 C14        -8.6023    0.0660   59.4044 C.ar    1  ZINC000550011575   -0.1300
     15 C15        -9.6815    0.3771   58.5967 C.ar    1  ZINC000550011575    0.0000
     16 Cl16      -10.1563    2.0331   58.3824 Cl      1  ZINC000550011575   -0.0500
     17 S17        -8.0548    0.3061   53.4176 S.o2    1  ZINC000550011575    2.4500
     18 O18        -7.1471    0.3019   54.5109 O.2     1  ZINC000550011575   -0.9200
     19 O19        -8.2659   -0.8939   52.6864 O.2     1  ZINC000550011575   -0.9100
     20 C20        -7.5570    1.6093   52.2582 C.3     1  ZINC000550011575   -0.5300
     21 H21        -8.4315    2.1994   51.9836 H       1  ZINC000550011575    0.1500
     22 C22        -6.9677    0.9688   51.0032 C.3     1  ZINC000550011575   -0.1100
     23 C23        -6.3578    2.0757   50.1352 C.3     1  ZINC000550011575   -0.1100
     24 C24        -5.1118    2.6090   50.8395 C.3     1  ZINC000550011575   -0.0900
     25 C25        -5.4249    2.9703   52.2679 C.ar    1  ZINC000550011575   -0.0600
     26 C26        -4.5378    3.8065   52.9326 C.ar    1  ZINC000550011575   -0.1200
     27 C27        -4.7655    4.1698   54.2442 C.ar    1  ZINC000550011575   -0.1100
     28 C28        -5.8850    3.6972   54.9028 C.ar    1  ZINC000550011575   -0.1100
     29 C29        -6.7690    2.8681   54.2432 C.ar    1  ZINC000550011575   -0.1500
     30 C30        -6.5428    2.5038   52.9218 C.ar    1  ZINC000550011575   -0.0800
     31 H31       -10.4348    1.5562   52.0956 H       1  ZINC000550011575    0.0900
     32 H32       -10.6645   -0.1750   52.4397 H       1  ZINC000550011575    0.0900
     33 H33       -11.6785    1.0372   53.2585 H       1  ZINC000550011575    0.0800
     34 H34       -12.5938    1.6782   55.0230 H       1  ZINC000550011575    0.0700
     35 H35       -12.0939    2.2509   56.6324 H       1  ZINC000550011575    0.0800
     36 H36       -11.0210    2.4850   55.2316 H       1  ZINC000550011575    0.0700
     37 H37       -12.3024    0.2640   57.6717 H       1  ZINC000550011575    0.1000
     38 H38       -12.0194   -1.2135   56.7203 H       1  ZINC000550011575    0.1100
     39 H39        -8.6285   -3.2912   59.0776 H       1  ZINC000550011575    0.1500
     40 H40        -7.3783   -1.4942   60.2031 H       1  ZINC000550011575    0.1500
     41 H41        -8.0533    0.8537   59.8989 H       1  ZINC000550011575    0.1400
     42 H42        -6.1937    0.2547   51.2845 H       1  ZINC000550011575    0.0800
     43 H43        -7.7544    0.4582   50.4477 H       1  ZINC000550011575    0.0900
     44 H44        -6.0837    1.6697   49.1615 H       1  ZINC000550011575    0.0800
     45 H45        -7.0804    2.8817   50.0071 H       1  ZINC000550011575    0.0700
     46 H46        -4.3352    1.8444   50.8240 H       1  ZINC000550011575    0.0800
     47 H47        -4.7538    3.4948   50.3148 H       1  ZINC000550011575    0.0800
     48 H48        -3.6623    4.1754   52.4190 H       1  ZINC000550011575    0.1300
     49 H49        -4.0711    4.8208   54.7545 H       1  ZINC000550011575    0.1300
     50 H50        -6.0671    3.9757   55.9302 H       1  ZINC000550011575    0.1300
     51 H51        -7.6431    2.4988   54.7586 H       1  ZINC000550011575    0.1700
@<TRIPOS>BOND
     1     1     2    1
     2     1    31    1
     3     1    32    1
     4     1    33    1
     5     2     3    1
     6     2     4    1
     7     2    17    1
     8     4     5    2
     9     4     6   am
    10     6     7    1
    11     6     8    1
    12     7    34    1
    13     7    35    1
    14     7    36    1
    15     8     9    1
    16     8    37    1
    17     8    38    1
    18     9    15   ar
    19     9    10   ar
    20    10    11    1
    21    10    12   ar
    22    12    13   ar
    23    12    39    1
    24    13    14   ar
    25    13    40    1
    26    14    15   ar
    27    14    41    1
    28    15    16    1
    29    17    18    2
    30    17    19    2
    31    17    20    1
    32    20    21    1
    33    20    30    1
    34    20    22    1
    35    22    23    1
    36    22    42    1
    37    22    43    1
    38    23    24    1
    39    23    44    1
    40    23    45    1
    41    24    25    1
    42    24    46    1
    43    24    47    1
    44    25    30   ar
    45    25    26   ar
    46    26    27   ar
    47    26    48    1
    48    27    28   ar
    49    27    49    1
    50    28    29   ar
    51    28    50    1
    52    29    30   ar
    53    29    51    1
@<TRIPOS>SUBSTRUCTURE
     1 ZINC000550011575        1 TEMP              0 ****  ****    0 ROOT


##########                                Name:    ZINC001011267435
##########                DOCK_Rotatable_Bonds:                   7
##########                         Heavy_Atoms:                  24
##########                    Molecular_Weight:             331.458
##########                DOCK_Rotatable_Bonds:                   7
##########                       Formal_Charge:        -4.47035e-08
##########                     HBond_Acceptors:                   5
##########                        HBond_Donors:                   0
##########                         Heavy_Atoms:                  24
##########                          Grid_Score:          -28.319010
##########                     Grid_vdw_energy:          -28.652876
##########                      Grid_es_energy:            0.333867
##########           Internal_energy_repulsive:           39.526363

@<TRIPOS>MOLECULE
ZINC001011267435
 53 54 1 0 0
SMALL
USER_CHARGES


@<TRIPOS>ATOM
      1 C1        -14.7108   -1.9519   59.5015 C.3     1  ZINC001011267435   -0.1500
      2 C2        -13.9478   -1.2893   60.6503 C.3     1  ZINC001011267435   -0.1200
      3 C3        -12.8320   -0.4105   60.0816 C.3     1  ZINC001011267435   -0.0700
      4 C4        -11.8899   -1.2591   59.2671 C.ar    1  ZINC001011267435    0.1300
      5 C5        -11.8923   -1.1499   57.8902 C.ar    1  ZINC001011267435   -0.1200
      6 C6        -11.0134   -1.9428   57.1456 C.ar    1  ZINC001011267435   -0.0800
      7 C7        -10.9798   -1.8597   55.6669 C.2     1  ZINC001011267435    0.5600
      8 O8        -11.4564   -2.7545   54.9970 O.2     1  ZINC001011267435   -0.5200
      9 N9        -10.4206   -0.7915   55.0645 N.am    1  ZINC001011267435   -0.6100
     10 C10        -9.8351    0.2953   55.8619 C.3     1  ZINC001011267435    0.0700
     11 C11        -8.3807    0.4990   55.4194 C.3     1  ZINC001011267435    0.1000
     12 N12        -8.3453    0.5977   53.9535 N.am    1  ZINC001011267435   -0.6200
     13 C13        -7.7854    1.6654   53.3511 C.2     1  ZINC001011267435    0.5300
     14 O14        -7.3048    2.5559   54.0197 O.2     1  ZINC001011267435   -0.5300
     15 C15        -7.7564    1.7528   51.8470 C.3     1  ZINC001011267435   -0.1100
     16 H16        -8.7124    1.4175   51.4451 H       1  ZINC001011267435    0.0900
     17 C17        -6.6355    0.8630   51.3059 C.3     1  ZINC001011267435   -0.1500
     18 C18        -7.5057    3.2019   51.4250 C.3     1  ZINC001011267435   -0.0800
     19 C19        -6.0002    3.4729   51.4005 C.3     1  ZINC001011267435   -0.1500
     20 C20        -8.0886    3.4348   50.0296 C.3     1  ZINC001011267435   -0.1500
     21 C21        -8.9309   -0.4892   53.1561 C.3     1  ZINC001011267435    0.0900
     22 C22       -10.3802   -0.6955   53.5986 C.3     1  ZINC001011267435    0.1000
     23 C23       -10.1670   -2.8157   57.8355 C.ar    1  ZINC001011267435   -0.1600
     24 C24       -10.2313   -2.8606   59.2150 C.ar    1  ZINC001011267435    0.1100
     25 N25       -11.0711   -2.0918   59.8786 N.ar    1  ZINC001011267435   -0.4600
     26 H26       -15.1442   -1.1830   58.8620 H       1  ZINC001011267435    0.0600
     27 H27       -14.0260   -2.5668   58.9175 H       1  ZINC001011267435    0.0500
     28 H28       -15.5058   -2.5780   59.9068 H       1  ZINC001011267435    0.0600
     29 H29       -14.6326   -0.6744   61.2343 H       1  ZINC001011267435    0.0700
     30 H30       -13.5144   -2.0582   61.2899 H       1  ZINC001011267435    0.0600
     31 H31       -13.2659    0.3622   59.4469 H       1  ZINC001011267435    0.0800
     32 H32       -12.2846    0.0567   60.9001 H       1  ZINC001011267435    0.0900
     33 H33       -12.5630   -0.4626   57.3960 H       1  ZINC001011267435    0.1400
     34 H34       -10.3991    1.2137   55.6987 H       1  ZINC001011267435    0.0800
     35 H35        -9.8621    0.0293   56.9185 H       1  ZINC001011267435    0.1100
     36 H36        -7.9903    1.4177   55.8574 H       1  ZINC001011267435    0.1100
     37 H37        -7.7775   -0.3490   55.7436 H       1  ZINC001011267435    0.0700
     38 H38        -6.5603    0.9895   50.2259 H       1  ZINC001011267435    0.0800
     39 H39        -5.6910    1.1449   51.7714 H       1  ZINC001011267435    0.0600
     40 H40        -6.8564   -0.1795   51.5350 H       1  ZINC001011267435    0.0600
     41 H41        -7.9846    3.8753   52.1358 H       1  ZINC001011267435    0.0800
     42 H42        -5.8216    4.5053   51.0998 H       1  ZINC001011267435    0.0600
     43 H43        -5.5849    3.3070   52.3946 H       1  ZINC001011267435    0.0600
     44 H44        -5.5213    2.7995   50.6897 H       1  ZINC001011267435    0.0600
     45 H45        -9.1612    3.2417   50.0471 H       1  ZINC001011267435    0.0600
     46 H46        -7.9100    4.4672   49.7290 H       1  ZINC001011267435    0.0600
     47 H47        -7.6097    2.7613   49.3188 H       1  ZINC001011267435    0.0500
     48 H48        -8.9039   -0.2232   52.0995 H       1  ZINC001011267435    0.1000
     49 H49        -8.3668   -1.4075   53.3193 H       1  ZINC001011267435    0.0800
     50 H50       -10.7693   -1.6143   53.1598 H       1  ZINC001011267435    0.1100
     51 H51       -10.9854    0.1517   53.2759 H       1  ZINC001011267435    0.0800
     52 H52        -9.4735   -3.4458   57.2982 H       1  ZINC001011267435    0.1500
     53 H53        -9.5817   -3.5321   59.7569 H       1  ZINC001011267435    0.1700
@<TRIPOS>BOND
     1     1     2    1
     2     1    26    1
     3     1    27    1
     4     1    28    1
     5     2     3    1
     6     2    29    1
     7     2    30    1
     8     3     4    1
     9     3    31    1
    10     3    32    1
    11     4    25   ar
    12     4     5   ar
    13     5     6   ar
    14     5    33    1
    15     6     7    1
    16     6    23   ar
    17     7     8    2
    18     7     9   am
    19     9    22    1
    20     9    10    1
    21    10    11    1
    22    10    34    1
    23    10    35    1
    24    11    12    1
    25    11    36    1
    26    11    37    1
    27    12    13   am
    28    12    21    1
    29    13    14    2
    30    13    15    1
    31    15    16    1
    32    15    17    1
    33    15    18    1
    34    17    38    1
    35    17    39    1
    36    17    40    1
    37    18    19    1
    38    18    20    1
    39    18    41    1
    40    19    42    1
    41    19    43    1
    42    19    44    1
    43    20    45    1
    44    20    46    1
    45    20    47    1
    46    21    22    1
    47    21    48    1
    48    21    49    1
    49    22    50    1
    50    22    51    1
    51    23    24   ar
    52    23    52    1
    53    24    25   ar
    54    24    53    1
@<TRIPOS>SUBSTRUCTURE
     1 ZINC001011267435        1 TEMP              0 ****  ****    0 ROOT


##########                                Name:    ZINC001067316277
##########                DOCK_Rotatable_Bonds:                   5
##########                         Heavy_Atoms:                  24
##########                    Molecular_Weight:             345.469
##########                DOCK_Rotatable_Bonds:                   5
##########                       Formal_Charge:          -0.0200007
##########                     HBond_Acceptors:                   7
##########                        HBond_Donors:                   2
##########                         Heavy_Atoms:                  24
##########                          Grid_Score:          -28.312096
##########                     Grid_vdw_energy:          -28.503996
##########                      Grid_es_energy:            0.191899
##########           Internal_energy_repulsive:           10.179471

@<TRIPOS>MOLECULE
ZINC001067316277
 47 49 1 0 0
SMALL
USER_CHARGES


@<TRIPOS>ATOM
      1 C1         -2.2526   -0.1518   48.1446 C.3     1  ZINC001067316277   -0.1400
      2 S2         -0.9385    0.7725   48.9782 S.3     1  ZINC001067316277   -0.0400
      3 C3         -1.9086    1.9105   49.9100 C.ar    1  ZINC001067316277    0.1800
      4 C4         -1.2969    2.9385   50.6317 C.ar    1  ZINC001067316277   -0.2400
      5 C5         -2.0970    3.8071   51.3476 C.ar    1  ZINC001067316277    0.1900
      6 N6         -3.4117    3.6419   51.3297 N.ar    1  ZINC001067316277   -0.5600
      7 C7         -3.9654    2.6579   50.6362 C.ar    1  ZINC001067316277    0.5100
      8 N8         -5.3424    2.5193   50.6431 N.3     1  ZINC001067316277   -0.4600
      9 C9         -5.7315    1.1475   50.9941 C.3     1  ZINC001067316277    0.0700
     10 C10        -7.2473    0.9932   50.8505 C.3     1  ZINC001067316277   -0.1300
     11 C11        -7.9470    1.9941   51.7739 C.3     1  ZINC001067316277    0.1600
     12 H12        -7.6885    1.7760   52.8101 H       1  ZINC001067316277    0.0900
     13 N13        -9.3979    1.8902   51.5989 N.am    1  ZINC001067316277   -0.7200
     14 C14       -10.1401    1.2253   52.5063 C.2     1  ZINC001067316277    0.5900
     15 O15        -9.6051    0.7100   53.4702 O.2     1  ZINC001067316277   -0.5300
     16 C16       -11.5929    1.1227   52.3321 C.2     1  ZINC001067316277   -0.0600
     17 C17       -12.4720    0.4819   53.1790 C.2     1  ZINC001067316277   -0.1000
     18 C18       -13.7508    0.6308   52.6331 C.2     1  ZINC001067316277   -0.2100
     19 C19       -13.6331    1.3441   51.4876 C.2     1  ZINC001067316277    0.0300
     20 N20       -12.3276    1.6539   51.2963 N.pl3   1  ZINC001067316277   -0.5400
     21 C21        -7.4877    3.4111   51.4193 C.3     1  ZINC001067316277   -0.0700
     22 C22        -7.8991    3.7368   49.9821 C.3     1  ZINC001067316277   -0.1400
     23 C23        -8.1372    4.4130   52.3761 C.3     1  ZINC001067316277   -0.1400
     24 C24        -5.9650    3.4953   51.5465 C.3     1  ZINC001067316277    0.0800
     25 N25        -3.2345    1.8071   49.9321 N.ar    1  ZINC001067316277   -0.5400
     26 H26        -2.8943   -0.6227   48.8894 H       1  ZINC001067316277    0.0900
     27 H27        -2.8447    0.5295   47.5335 H       1  ZINC001067316277    0.0900
     28 H28        -1.8103   -0.9189   47.5089 H       1  ZINC001067316277    0.1000
     29 H29        -0.2228    3.0512   50.6301 H       1  ZINC001067316277    0.1500
     30 H30        -1.6559    4.6122   51.9164 H       1  ZINC001067316277    0.1700
     31 H31        -5.2302    0.4459   50.3272 H       1  ZINC001067316277    0.1000
     32 H32        -5.4412    0.9399   52.0240 H       1  ZINC001067316277    0.0500
     33 H33        -7.5365    1.1871   49.8176 H       1  ZINC001067316277    0.0800
     34 H34        -7.5375   -0.0207   51.1260 H       1  ZINC001067316277    0.0800
     35 H35        -9.8242    2.2999   50.8300 H       1  ZINC001067316277    0.3900
     36 H36       -12.2204   -0.0375   54.0918 H       1  ZINC001067316277    0.1500
     37 H37       -14.6692    0.2452   53.0505 H       1  ZINC001067316277    0.1500
     38 H38       -14.4472    1.6236   50.8353 H       1  ZINC001067316277    0.1700
     39 H39       -11.9698    2.1606   50.5505 H       1  ZINC001067316277    0.4100
     40 H40        -8.9835    3.6732   49.8912 H       1  ZINC001067316277    0.0500
     41 H41        -7.5720    4.7455   49.7302 H       1  ZINC001067316277    0.0600
     42 H42        -7.4351    3.0236   49.3009 H       1  ZINC001067316277    0.0700
     43 H43        -7.8427    4.1814   53.3996 H       1  ZINC001067316277    0.0600
     44 H44        -7.8099    5.4215   52.1231 H       1  ZINC001067316277    0.0600
     45 H45        -9.2218    4.3499   52.2869 H       1  ZINC001067316277    0.0600
     46 H46        -5.6737    3.2768   52.5737 H       1  ZINC001067316277    0.0600
     47 H47        -5.6334    4.4992   51.2808 H       1  ZINC001067316277    0.1000
@<TRIPOS>BOND
     1     1     2    1
     2     1    26    1
     3     1    27    1
     4     1    28    1
     5     2     3    1
     6     3    25   ar
     7     3     4   ar
     8     4     5   ar
     9     4    29    1
    10     5     6   ar
    11     5    30    1
    12     6     7   ar
    13     7     8    1
    14     7    25   ar
    15     8    24    1
    16     8     9    1
    17     9    10    1
    18     9    31    1
    19     9    32    1
    20    10    11    1
    21    10    33    1
    22    10    34    1
    23    11    12    1
    24    11    13    1
    25    11    21    1
    26    13    14   am
    27    13    35    1
    28    14    15    2
    29    14    16    1
    30    16    20    1
    31    16    17    2
    32    17    18    1
    33    17    36    1
    34    18    19    2
    35    18    37    1
    36    19    20    1
    37    19    38    1
    38    20    39    1
    39    21    22    1
    40    21    23    1
    41    21    24    1
    42    22    40    1
    43    22    41    1
    44    22    42    1
    45    23    43    1
    46    23    44    1
    47    23    45    1
    48    24    46    1
    49    24    47    1
@<TRIPOS>SUBSTRUCTURE
     1 ZINC001067316277        1 TEMP              0 ****  ****    0 ROOT


##########                                Name:    ZINC001067560454
##########                DOCK_Rotatable_Bonds:                   4
##########                         Heavy_Atoms:                  25
##########                    Molecular_Weight:             342.444
##########                DOCK_Rotatable_Bonds:                   4
##########                       Formal_Charge:          0.00999971
##########                     HBond_Acceptors:                   7
##########                        HBond_Donors:                   1
##########                         Heavy_Atoms:                  25
##########                          Grid_Score:          -28.302017
##########                     Grid_vdw_energy:          -27.806551
##########                      Grid_es_energy:           -0.495467
##########           Internal_energy_repulsive:           10.702315

@<TRIPOS>MOLECULE
ZINC001067560454
 51 54 1 0 0
SMALL
USER_CHARGES


@<TRIPOS>ATOM
      1 C1        -11.2680    2.0750   53.7466 C.3     1  ZINC001067560454   -0.1500
      2 C2        -11.0195    0.9065   54.7025 C.3     1  ZINC001067560454    0.1000
      3 H3        -10.7200    1.2920   55.6771 H       1  ZINC001067560454    0.0600
      4 C4        -12.3035    0.0871   54.8508 C.3     1  ZINC001067560454   -0.1200
      5 C5        -12.0447   -1.0922   55.7923 C.3     1  ZINC001067560454    0.1400
      6 H6        -11.7748   -0.7177   56.7798 H       1  ZINC001067560454    0.0900
      7 N7        -13.2544   -1.9124   55.8936 N.am    1  ZINC001067560454   -0.7200
      8 C8        -13.4706   -2.6614   56.9930 C.2     1  ZINC001067560454    0.5400
      9 O9        -12.6631   -2.6575   57.8979 O.2     1  ZINC001067560454   -0.5300
     10 C10       -14.7159   -3.5037   57.0980 C.3     1  ZINC001067560454   -0.1100
     11 C11       -14.4788   -4.9652   56.7126 C.3     1  ZINC001067560454   -0.1300
     12 C12       -15.4669   -3.3296   58.4287 C.3     1  ZINC001067560454   -0.1200
     13 C13       -16.2361   -2.1816   57.7539 C.3     1  ZINC001067560454   -0.1400
     14 C14       -15.9427   -2.8774   56.4142 C.3     1  ZINC001067560454   -0.1200
     15 C15       -10.8967   -1.9380   55.2345 C.3     1  ZINC001067560454   -0.1200
     16 C16        -9.6534   -1.0601   55.0751 C.3     1  ZINC001067560454    0.0600
     17 N17        -9.9524    0.0530   54.1649 N.3     1  ZINC001067560454   -0.4900
     18 C18        -8.8142    0.7928   53.8956 C.ar    1  ZINC001067560454    0.4400
     19 C19        -8.2187    0.7583   52.6233 C.ar    1  ZINC001067560454   -0.0800
     20 N20        -8.4934    0.1211   51.4599 N.2     1  ZINC001067560454   -0.4700
     21 C21        -7.6033    0.4458   50.5677 C.2     1  ZINC001067560454    0.2700
     22 N22        -6.7000    1.3137   51.1053 N.pl3   1  ZINC001067560454   -0.4800
     23 C23        -5.5509    1.9061   50.4162 C.3     1  ZINC001067560454    0.0800
     24 C24        -7.0647    1.5313   52.4098 C.ar    1  ZINC001067560454    0.2800
     25 N25        -6.5822    2.2612   53.4100 N.ar    1  ZINC001067560454   -0.5200
     26 C26        -7.1740    2.2629   54.5859 C.ar    1  ZINC001067560454    0.3300
     27 N27        -8.2621    1.5567   54.8327 N.ar    1  ZINC001067560454   -0.5100
     28 H28       -11.5674    1.6897   52.7719 H       1  ZINC001067560454    0.0700
     29 H29       -12.0598    2.7088   54.1457 H       1  ZINC001067560454    0.0700
     30 H30       -10.3536    2.6589   53.6411 H       1  ZINC001067560454    0.0500
     31 H31       -13.0913    0.7169   55.2644 H       1  ZINC001067560454    0.0800
     32 H32       -12.6111   -0.2873   53.8745 H       1  ZINC001067560454    0.0800
     33 H33       -13.8997   -1.9164   55.1694 H       1  ZINC001067560454    0.4000
     34 H34       -13.6135   -5.3479   57.2536 H       1  ZINC001067560454    0.0600
     35 H35       -15.3582   -5.5559   56.9692 H       1  ZINC001067560454    0.0700
     36 H36       -14.2959   -5.0331   55.6401 H       1  ZINC001067560454    0.0600
     37 H37       -16.0946   -4.1814   58.6903 H       1  ZINC001067560454    0.0900
     38 H38       -14.8292   -3.0042   59.2506 H       1  ZINC001067560454    0.0700
     39 H39       -17.2952   -2.1560   58.0098 H       1  ZINC001067560454    0.0700
     40 H40       -15.7511   -1.2110   57.8573 H       1  ZINC001067560454    0.0800
     41 H41       -15.6891   -2.1868   55.6099 H       1  ZINC001067560454    0.0800
     42 H42       -16.7005   -3.6056   56.1251 H       1  ZINC001067560454    0.0900
     43 H43       -10.6793   -2.7552   55.9222 H       1  ZINC001067560454    0.0800
     44 H44       -11.1821   -2.3444   54.2641 H       1  ZINC001067560454    0.0800
     45 H45        -9.3604   -0.6652   56.0479 H       1  ZINC001067560454    0.0700
     46 H46        -8.8382   -1.6558   54.6646 H       1  ZINC001067560454    0.0800
     47 H47        -7.5830    0.0809   49.5514 H       1  ZINC001067560454    0.2300
     48 H48        -5.8511    2.8444   49.9497 H       1  ZINC001067560454    0.0800
     49 H49        -4.7544    2.0965   51.1355 H       1  ZINC001067560454    0.0900
     50 H50        -5.1922    1.2182   49.6505 H       1  ZINC001067560454    0.0900
     51 H51        -6.7560    2.8672   55.3774 H       1  ZINC001067560454    0.2100
@<TRIPOS>BOND
     1     1     2    1
     2     1    28    1
     3     1    29    1
     4     1    30    1
     5     2     3    1
     6     2    17    1
     7     2     4    1
     8     4     5    1
     9     4    31    1
    10     4    32    1
    11     5     6    1
    12     5     7    1
    13     5    15    1
    14     7     8   am
    15     7    33    1
    16     8     9    2
    17     8    10    1
    18    10    14    1
    19    10    11    1
    20    10    12    1
    21    11    34    1
    22    11    35    1
    23    11    36    1
    24    12    13    1
    25    12    37    1
    26    12    38    1
    27    13    14    1
    28    13    39    1
    29    13    40    1
    30    14    41    1
    31    14    42    1
    32    15    16    1
    33    15    43    1
    34    15    44    1
    35    16    17    1
    36    16    45    1
    37    16    46    1
    38    17    18    1
    39    18    27   ar
    40    18    19   ar
    41    19    24   ar
    42    19    20    1
    43    20    21    2
    44    21    22    1
    45    21    47    1
    46    22    23    1
    47    22    24    1
    48    23    48    1
    49    23    49    1
    50    23    50    1
    51    24    25   ar
    52    25    26   ar
    53    26    27   ar
    54    26    51    1
@<TRIPOS>SUBSTRUCTURE
     1 ZINC001067560454        1 TEMP              0 ****  ****    0 ROOT


##########                                Name:    ZINC001362451754
##########                DOCK_Rotatable_Bonds:                   6
##########                         Heavy_Atoms:                  22
##########                    Molecular_Weight:             339.846
##########                DOCK_Rotatable_Bonds:                   6
##########                       Formal_Charge:         -0.00999987
##########                     HBond_Acceptors:                   7
##########                        HBond_Donors:                   1
##########                         Heavy_Atoms:                  22
##########                          Grid_Score:          -28.296114
##########                     Grid_vdw_energy:          -27.952837
##########                      Grid_es_energy:           -0.343277
##########           Internal_energy_repulsive:           17.354641

@<TRIPOS>MOLECULE
ZINC001362451754
 40 42 1 0 0
SMALL
USER_CHARGES


@<TRIPOS>ATOM
      1 C1        -10.1309   -0.5752   54.3021 C.3     1  ZINC001362451754   -0.1700
      2 C2        -10.5216    0.0726   52.9721 C.3     1  ZINC001362451754    0.1400
      3 H3        -10.8815   -0.6876   52.2788 H       1  ZINC001362451754    0.0800
      4 C4        -11.6198    1.1312   53.2066 C.3     1  ZINC001362451754   -0.1000
      5 H5        -12.3227    1.1485   52.3737 H       1  ZINC001362451754    0.1000
      6 C6        -12.3486    0.8720   54.5267 C.3     1  ZINC001362451754    0.0900
      7 O7        -13.4115    1.8152   54.6772 O.3     1  ZINC001362451754   -0.5700
      8 C8        -10.8160    2.4565   53.2743 C.3     1  ZINC001362451754   -0.1200
      9 C9         -9.6941    2.1954   52.2418 C.3     1  ZINC001362451754    0.0900
     10 N10        -9.3618    0.7673   52.3945 N.am    1  ZINC001362451754   -0.6100
     11 C11        -8.1872    0.1944   52.0648 C.2     1  ZINC001362451754    0.6100
     12 O12        -8.0233   -0.9993   52.2354 O.2     1  ZINC001362451754   -0.5200
     13 C13        -7.1072    1.0094   51.5008 C.2     1  ZINC001362451754   -0.2500
     14 C14        -6.9485    1.3087   50.1769 C.2     1  ZINC001362451754   -0.0500
     15 C15        -5.8442    2.0875   49.9242 C.2     1  ZINC001362451754   -0.1100
     16 C16        -5.1281    2.4243   51.0033 C.2     1  ZINC001362451754   -0.2500
     17 C17        -3.8831    3.2728   50.9713 C.3     1  ZINC001362451754    0.2100
     18 N18        -2.7839    2.5051   50.3807 N.pl3   1  ZINC001362451754   -0.3700
     19 C19        -2.9028    1.3536   49.6854 C.2     1  ZINC001362451754    0.0700
     20 C20        -1.6604    0.9685   49.3102 C.2     1  ZINC001362451754   -0.1800
     21 Cl21       -1.2648   -0.4491   48.3895 Cl      1  ZINC001362451754   -0.0400
     22 C22        -0.7510    1.9118   49.8012 C.2     1  ZINC001362451754    0.0700
     23 N23        -1.4233    2.8329   50.4426 N.2     1  ZINC001362451754   -0.2700
     24 S24        -5.8080    1.7581   52.4192 S.3     1  ZINC001362451754    0.2300
     25 H25        -9.7666    0.1912   54.9863 H       1  ZINC001362451754    0.0600
     26 H26       -11.0016   -1.0661   54.7368 H       1  ZINC001362451754    0.0700
     27 H27        -9.3461   -1.3119   54.1307 H       1  ZINC001362451754    0.0700
     28 H28       -12.7572   -0.1385   54.5238 H       1  ZINC001362451754    0.0500
     29 H29       -11.6483    0.9784   55.3552 H       1  ZINC001362451754    0.0500
     30 H30       -14.0903    1.5450   55.3106 H       1  ZINC001362451754    0.3800
     31 H31       -11.4339    3.3038   52.9766 H       1  ZINC001362451754    0.0900
     32 H32       -10.3991    2.6103   54.2696 H       1  ZINC001362451754    0.0800
     33 H33        -8.8236    2.8132   52.4623 H       1  ZINC001362451754    0.0800
     34 H34       -10.0561    2.3949   51.2332 H       1  ZINC001362451754    0.0800
     35 H35        -7.6211    0.9641   49.4055 H       1  ZINC001362451754    0.1600
     36 H36        -5.5764    2.4073   48.9280 H       1  ZINC001362451754    0.1500
     37 H37        -4.0664    4.1646   50.3720 H       1  ZINC001362451754    0.1100
     38 H38        -3.6169    3.5658   51.9869 H       1  ZINC001362451754    0.1100
     39 H39        -3.8240    0.8344   49.4658 H       1  ZINC001362451754    0.1800
     40 H40         0.3211    1.8842   49.6729 H       1  ZINC001362451754    0.1900
@<TRIPOS>BOND
     1     1     2    1
     2     1    25    1
     3     1    26    1
     4     1    27    1
     5     2     3    1
     6     2    10    1
     7     2     4    1
     8     4     5    1
     9     4     6    1
    10     4     8    1
    11     6     7    1
    12     6    28    1
    13     6    29    1
    14     7    30    1
    15     8     9    1
    16     8    31    1
    17     8    32    1
    18     9    10    1
    19     9    33    1
    20     9    34    1
    21    10    11   am
    22    11    12    2
    23    11    13    1
    24    13    24    1
    25    13    14    2
    26    14    15    1
    27    14    35    1
    28    15    16    2
    29    15    36    1
    30    16    17    1
    31    16    24    1
    32    17    18    1
    33    17    37    1
    34    17    38    1
    35    18    23    1
    36    18    19    1
    37    19    20    2
    38    19    39    1
    39    20    21    1
    40    20    22    1
    41    22    23    2
    42    22    40    1
@<TRIPOS>SUBSTRUCTURE
     1 ZINC001362451754        1 TEMP              0 ****  ****    0 ROOT


##########                                Name:    ZINC001013196242
##########                DOCK_Rotatable_Bonds:                   5
##########                         Heavy_Atoms:                  24
##########                    Molecular_Weight:              349.86
##########                DOCK_Rotatable_Bonds:                   5
##########                       Formal_Charge:        -3.05474e-07
##########                     HBond_Acceptors:                   6
##########                        HBond_Donors:                   1
##########                         Heavy_Atoms:                  24
##########                          Grid_Score:          -28.267612
##########                     Grid_vdw_energy:          -28.445099
##########                      Grid_es_energy:            0.177487
##########           Internal_energy_repulsive:           16.447033

@<TRIPOS>MOLECULE
ZINC001013196242
 48 51 1 0 0
SMALL
USER_CHARGES


@<TRIPOS>ATOM
      1 C1        -11.7634   -2.5599   56.3235 C.3     1  ZINC001013196242   -0.1600
      2 C2        -11.5192   -1.1278   55.8435 C.3     1  ZINC001013196242    0.1400
      3 H3        -12.3780   -0.5032   56.0891 H       1  ZINC001013196242    0.0800
      4 C4        -11.2826   -1.1186   54.3185 C.3     1  ZINC001013196242   -0.1400
      5 C5        -10.1722   -0.0488   54.1456 C.3     1  ZINC001013196242    0.1300
      6 H6        -10.5964    0.9551   54.1271 H       1  ZINC001013196242    0.1100
      7 N7         -9.3806   -0.3037   52.9396 N.am    1  ZINC001013196242   -0.7200
      8 C8         -8.3433    0.4999   52.6319 C.2     1  ZINC001013196242    0.5400
      9 O9         -8.0643    1.4332   53.3545 O.2     1  ZINC001013196242   -0.5200
     10 C10        -7.5302    0.2388   51.3904 C.3     1  ZINC001013196242   -0.1400
     11 C11        -7.5039    1.4252   50.4106 C.3     1  ZINC001013196242   -0.0800
     12 C12        -6.2666    1.9166   51.1697 C.3     1  ZINC001013196242   -0.1600
     13 C13        -5.2489    2.9706   50.7482 C.3     1  ZINC001013196242   -0.1700
     14 C14        -6.1024    3.1838   52.0014 C.3     1  ZINC001013196242   -0.1400
     15 C15        -6.0201    0.4621   51.5850 C.3     1  ZINC001013196242   -0.0800
     16 C16        -9.3253   -0.2702   55.4238 C.3     1  ZINC001013196242    0.0800
     17 N17       -10.3093   -0.5867   56.4795 N.am    1  ZINC001013196242   -0.6000
     18 C18       -10.1255   -0.4100   57.8029 C.2     1  ZINC001013196242    0.6100
     19 O19        -9.0764    0.0485   58.2157 O.2     1  ZINC001013196242   -0.5400
     20 C20       -11.1897   -0.7702   58.7456 C.2     1  ZINC001013196242   -0.0400
     21 C21       -12.4442   -0.2020   58.8143 C.2     1  ZINC001013196242   -0.1400
     22 C22       -13.1302   -0.8438   59.8508 C.2     1  ZINC001013196242   -0.1200
     23 Cl23      -14.7556   -0.5102   60.3612 Cl      1  ZINC001013196242   -0.0400
     24 C24       -12.3007   -1.7726   60.3854 C.2     1  ZINC001013196242    0.0400
     25 N25       -11.1199   -1.7411   59.7189 N.pl3   1  ZINC001013196242   -0.4000
     26 C26        -9.9603   -2.5929   59.9944 C.3     1  ZINC001013196242    0.0700
     27 H27       -11.9241   -2.5593   57.4016 H       1  ZINC001013196242    0.0700
     28 H28       -12.6441   -2.9651   55.8251 H       1  ZINC001013196242    0.0700
     29 H29       -10.8959   -3.1757   56.0858 H       1  ZINC001013196242    0.0600
     30 H30       -10.9355   -2.0935   53.9763 H       1  ZINC001013196242    0.0900
     31 H31       -12.1886   -0.8231   53.7894 H       1  ZINC001013196242    0.0900
     32 H32        -9.6030   -1.0510   52.3624 H       1  ZINC001013196242    0.4000
     33 H33        -7.7730   -0.7132   50.9182 H       1  ZINC001013196242    0.1000
     34 H34        -7.2983    1.1364   49.3798 H       1  ZINC001013196242    0.1000
     35 H35        -8.3648    2.0872   50.5026 H       1  ZINC001013196242    0.0700
     36 H36        -4.1938    2.7375   50.8913 H       1  ZINC001013196242    0.1000
     37 H37        -5.4828    3.5740   49.8711 H       1  ZINC001013196242    0.0900
     38 H38        -6.8977    3.9273   51.9485 H       1  ZINC001013196242    0.0900
     39 H39        -5.6087    3.0907   52.9688 H       1  ZINC001013196242    0.1000
     40 H40        -5.6914    0.3522   52.6184 H       1  ZINC001013196242    0.0800
     41 H41        -5.4015   -0.0947   50.8811 H       1  ZINC001013196242    0.0900
     42 H42        -8.6369   -1.1034   55.2830 H       1  ZINC001013196242    0.0800
     43 H43        -8.7773    0.6372   55.6775 H       1  ZINC001013196242    0.1000
     44 H44       -12.8252    0.5899   58.1865 H       1  ZINC001013196242    0.1600
     45 H45       -12.5418   -2.4326   61.2055 H       1  ZINC001013196242    0.1800
     46 H46        -9.9762   -3.4550   59.3276 H       1  ZINC001013196242    0.0800
     47 H47        -9.0449   -2.0243   59.8312 H       1  ZINC001013196242    0.1000
     48 H48        -9.9971   -2.9333   61.0292 H       1  ZINC001013196242    0.0900
@<TRIPOS>BOND
     1     1     2    1
     2     1    27    1
     3     1    28    1
     4     1    29    1
     5     2     3    1
     6     2    17    1
     7     2     4    1
     8     4     5    1
     9     4    30    1
    10     4    31    1
    11     5     6    1
    12     5     7    1
    13     5    16    1
    14     7     8   am
    15     7    32    1
    16     8     9    2
    17     8    10    1
    18    10    15    1
    19    10    11    1
    20    10    33    1
    21    11    12    1
    22    11    34    1
    23    11    35    1
    24    12    14    1
    25    12    13    1
    26    12    15    1
    27    13    14    1
    28    13    36    1
    29    13    37    1
    30    14    38    1
    31    14    39    1
    32    15    40    1
    33    15    41    1
    34    16    17    1
    35    16    42    1
    36    16    43    1
    37    17    18   am
    38    18    19    2
    39    18    20    1
    40    20    25    1
    41    20    21    2
    42    21    22    1
    43    21    44    1
    44    22    23    1
    45    22    24    2
    46    24    25    1
    47    24    45    1
    48    25    26    1
    49    26    46    1
    50    26    47    1
    51    26    48    1
@<TRIPOS>SUBSTRUCTURE
     1 ZINC001013196242        1 TEMP              0 ****  ****    0 ROOT


##########                                Name:    ZINC000022858610
##########                DOCK_Rotatable_Bonds:                   9
##########                         Heavy_Atoms:                  26
##########                    Molecular_Weight:             369.343
##########                DOCK_Rotatable_Bonds:                   9
##########                       Formal_Charge:          0.00999956
##########                     HBond_Acceptors:                   9
##########                        HBond_Donors:                   2
##########                         Heavy_Atoms:                  26
##########                          Grid_Score:          -28.251184
##########                     Grid_vdw_energy:          -28.077885
##########                      Grid_es_energy:           -0.173300
##########           Internal_energy_repulsive:           18.918369

@<TRIPOS>MOLECULE
ZINC000022858610
 44 45 1 0 0
SMALL
USER_CHARGES


@<TRIPOS>ATOM
      1 C1         -8.8825   -0.6073   59.0715 C.3     1  <0>         0.0100
      2 N2         -8.9848   -1.9950   58.6007 N.3     1  <0>        -0.5300
      3 C3         -8.2135   -2.9014   59.4618 C.3     1  <0>         0.0200
      4 C4        -10.3885   -2.4193   58.5136 C.3     1  <0>         0.1500
      5 H5        -10.5068   -3.3865   59.0021 H       1  <0>         0.1200
      6 C6        -10.7952   -2.5374   57.0434 C.3     1  <0>         0.1300
      7 N7        -10.0185   -1.5867   56.2439 N.am    1  <0>        -0.6800
      8 C8         -9.9509   -1.7291   54.9054 C.2     1  <0>         0.5100
      9 O9        -10.5347   -2.6439   54.3622 O.2     1  <0>        -0.5100
     10 C10        -9.1576   -0.7610   54.0906 C.2     1  <0>         0.5200
     11 O11        -8.2615   -0.1251   54.6061 O.2     1  <0>        -0.4900
     12 N12        -9.4367   -0.5934   52.7827 N.am    1  <0>        -0.6500
     13 C13        -8.6945    0.3124   52.0204 C.ar    1  <0>         0.1900
     14 C14        -7.4623   -0.0617   51.4996 C.ar    1  <0>        -0.1200
     15 C15        -6.7313    0.8362   50.7466 C.ar    1  <0>        -0.0700
     16 C16        -7.2248    2.1062   50.5110 C.ar    1  <0>        -0.1300
     17 C17        -8.4511    2.4822   51.0284 C.ar    1  <0>        -0.0500
     18 C18        -9.1900    1.5875   51.7769 C.ar    1  <0>        -0.2100
     19 C19       -10.5261    1.9980   52.3402 C.3     1  <0>         0.5100
     20 F20       -11.5209    1.1460   51.8489 F       1  <0>        -0.1700
     21 F21       -10.4888    1.9152   53.7362 F       1  <0>        -0.1800
     22 F22       -10.8088    3.3139   51.9585 F       1  <0>        -0.1700
     23 C23       -11.2644   -1.4009   59.1968 C.2     1  <0>        -0.0500
     24 C24       -11.6756   -1.4491   60.4767 C.2     1  <0>        -0.1900
     25 C25       -12.4721   -0.3016   60.6945 C.2     1  <0>        -0.2100
     26 C26       -12.5001    0.3793   59.5347 C.2     1  <0>        -0.0400
     27 O27       -11.7621   -0.2883   58.6328 O.3     1  <0>        -0.1700
     28 H28        -7.8576   -0.2568   58.9494 H       1  <0>         0.0700
     29 H29        -9.5542    0.0242   58.4900 H       1  <0>         0.0700
     30 H30        -9.1597   -0.5596   60.1246 H       1  <0>         0.0500
     31 H31        -8.5971   -2.8488   60.4807 H       1  <0>         0.0300
     32 H32        -8.3065   -3.9220   59.0907 H       1  <0>         0.0700
     33 H33        -7.1643   -2.6058   59.4530 H       1  <0>         0.0800
     34 H34       -10.6006   -3.5510   56.6928 H       1  <0>         0.0900
     35 H35       -11.8574   -2.3153   56.9413 H       1  <0>         0.0800
     36 H36        -9.5529   -0.8548   56.6779 H       1  <0>         0.4200
     37 H37       -10.1528   -1.1016   52.3707 H       1  <0>         0.4300
     38 H38        -7.0761   -1.0534   51.6835 H       1  <0>         0.1500
     39 H39        -5.7730    0.5461   50.3416 H       1  <0>         0.1400
     40 H40        -6.6510    2.8063   49.9218 H       1  <0>         0.1400
     41 H41        -8.8332    3.4751   50.8431 H       1  <0>         0.1500
     42 H42       -11.4424   -2.2174   61.1990 H       1  <0>         0.1500
     43 H43       -12.9641   -0.0249   61.6153 H       1  <0>         0.1500
     44 H44       -13.0239    1.3074   59.3597 H       1  <0>         0.2000
@<TRIPOS>BOND
     1     1     2    1
     2     1    28    1
     3     1    29    1
     4     1    30    1
     5     2     3    1
     6     2     4    1
     7     3    31    1
     8     3    32    1
     9     3    33    1
    10     4     5    1
    11     4     6    1
    12     4    23    1
    13     6     7    1
    14     6    34    1
    15     6    35    1
    16     7     8   am
    17     7    36    1
    18     8     9    2
    19     8    10    1
    20    10    11    2
    21    10    12   am
    22    12    13    1
    23    12    37    1
    24    13    18   ar
    25    13    14   ar
    26    14    15   ar
    27    14    38    1
    28    15    16   ar
    29    15    39    1
    30    16    17   ar
    31    16    40    1
    32    17    18   ar
    33    17    41    1
    34    18    19    1
    35    19    20    1
    36    19    21    1
    37    19    22    1
    38    23    27    1
    39    23    24    2
    40    24    25    1
    41    24    42    1
    42    25    26    2
    43    25    43    1
    44    26    27    1
    45    26    44    1
@<TRIPOS>SUBSTRUCTURE
     1 <0>         1 TEMP              0 ****  ****    0 ROOT


##########                                Name:    ZINC000477669194
##########                DOCK_Rotatable_Bonds:                   6
##########                         Heavy_Atoms:                  26
##########                    Molecular_Weight:             387.483
##########                DOCK_Rotatable_Bonds:                   6
##########                       Formal_Charge:         4.47035e-07
##########                     HBond_Acceptors:                   8
##########                        HBond_Donors:                   2
##########                         Heavy_Atoms:                  26
##########                          Grid_Score:          -28.180408
##########                     Grid_vdw_energy:          -26.972107
##########                      Grid_es_energy:           -1.208302
##########           Internal_energy_repulsive:            5.329587

@<TRIPOS>MOLECULE
ZINC000477669194
 43 45 1 0 0
SMALL
USER_CHARGES


@<TRIPOS>ATOM
      1 C1         -9.1781    1.0663   59.9520 C.3     1  ZINC000477669194   -0.0800
      2 C2         -9.7921   -0.2920   59.7305 C.2     1  ZINC000477669194    0.0500
      3 N3        -10.9846   -0.4956   59.2881 N.2     1  ZINC000477669194   -0.4900
      4 C4        -11.3709   -1.7556   59.1500 C.2     1  ZINC000477669194    0.1200
      5 C5        -12.7145   -2.1378   58.6518 C.ar    1  ZINC000477669194   -0.0600
      6 C6        -13.6907   -2.5795   59.5410 C.ar    1  ZINC000477669194   -0.0800
      7 C7        -14.9402   -2.9343   59.0724 C.ar    1  ZINC000477669194   -0.1400
      8 C8        -15.2273   -2.8528   57.7215 C.ar    1  ZINC000477669194   -0.0900
      9 C9        -14.2664   -2.4160   56.8290 C.ar    1  ZINC000477669194   -0.1300
     10 C10       -13.0092   -2.0505   57.2861 C.ar    1  ZINC000477669194    0.1800
     11 N11       -12.0365   -1.6083   56.3852 N.am    1  ZINC000477669194   -0.6500
     12 C12       -11.9497   -0.2994   56.0760 C.2     1  ZINC000477669194    0.5600
     13 O13       -12.7178    0.4969   56.5808 O.2     1  ZINC000477669194   -0.5200
     14 C14       -10.9232    0.1674   55.1253 C.ar    1  ZINC000477669194   -0.1500
     15 C15       -11.2970    0.6134   53.8541 C.ar    1  ZINC000477669194   -0.0600
     16 C16       -10.3369    1.0487   52.9695 C.ar    1  ZINC000477669194   -0.1400
     17 C17        -8.9948    1.0454   53.3394 C.ar    1  ZINC000477669194    0.1700
     18 N18        -8.0271    1.4859   52.4431 N.am    1  ZINC000477669194   -1.0600
     19 S19        -7.0336    0.3931   51.6942 S.o2    1  ZINC000477669194    2.6100
     20 C20        -5.9589    1.4060   50.6409 C.3     1  ZINC000477669194   -0.6700
     21 O21        -6.2880   -0.1875   52.7554 O.2     1  ZINC000477669194   -0.9400
     22 O22        -7.9123   -0.3928   50.9006 O.2     1  ZINC000477669194   -0.9500
     23 C23        -8.6194    0.6023   54.6046 C.ar    1  ZINC000477669194   -0.1600
     24 C24        -9.5751    0.1703   55.4955 C.ar    1  ZINC000477669194   -0.0300
     25 C25       -10.4344   -2.6598   59.5020 C.2     1  ZINC000477669194   -0.2600
     26 S26        -9.0011   -1.7784   60.0241 S.3     1  ZINC000477669194    0.1500
     27 H27        -8.1609    0.9486   60.3255 H       1  ZINC000477669194    0.0800
     28 H28        -9.1582    1.6140   59.0098 H       1  ZINC000477669194    0.0900
     29 H29        -9.7712    1.6186   60.6809 H       1  ZINC000477669194    0.0900
     30 H30       -13.4706   -2.6451   60.5963 H       1  ZINC000477669194    0.1300
     31 H31       -15.6963   -3.2772   59.7631 H       1  ZINC000477669194    0.1300
     32 H32       -16.2069   -3.1319   57.3625 H       1  ZINC000477669194    0.1300
     33 H33       -14.4963   -2.3552   55.7756 H       1  ZINC000477669194    0.1500
     34 H34       -11.4238   -2.2434   55.9825 H       1  ZINC000477669194    0.4200
     35 H35       -12.3379    0.6159   53.5664 H       1  ZINC000477669194    0.1300
     36 H36       -10.6249    1.3930   51.9872 H       1  ZINC000477669194    0.1400
     37 H37        -7.9340    2.4333   52.2568 H       1  ZINC000477669194    0.4300
     38 H38        -5.3346    2.0444   51.2660 H       1  ZINC000477669194    0.1300
     39 H39        -5.3247    0.7565   50.0374 H       1  ZINC000477669194    0.1400
     40 H40        -6.5715    2.0259   49.9862 H       1  ZINC000477669194    0.1300
     41 H41        -7.5774    0.6013   54.8888 H       1  ZINC000477669194    0.1700
     42 H42        -9.2833   -0.1730   56.4770 H       1  ZINC000477669194    0.1500
     43 H43       -10.5425   -3.7337   59.4665 H       1  ZINC000477669194    0.1800
@<TRIPOS>BOND
     1     1     2    1
     2     1    27    1
     3     1    28    1
     4     1    29    1
     5     2    26    1
     6     2     3    2
     7     3     4    1
     8     4     5    1
     9     4    25    2
    10     5    10   ar
    11     5     6   ar
    12     6     7   ar
    13     6    30    1
    14     7     8   ar
    15     7    31    1
    16     8     9   ar
    17     8    32    1
    18     9    10   ar
    19     9    33    1
    20    10    11    1
    21    11    12   am
    22    11    34    1
    23    12    13    2
    24    12    14    1
    25    14    24   ar
    26    14    15   ar
    27    15    16   ar
    28    15    35    1
    29    16    17   ar
    30    16    36    1
    31    17    18    1
    32    17    23   ar
    33    18    19   am
    34    18    37    1
    35    19    20    1
    36    19    21    2
    37    19    22    2
    38    20    38    1
    39    20    39    1
    40    20    40    1
    41    23    24   ar
    42    23    41    1
    43    24    42    1
    44    25    26    1
    45    25    43    1
@<TRIPOS>SUBSTRUCTURE
     1 ZINC000477669194        1 TEMP              0 ****  ****    0 ROOT


##########                                Name:    ZINC000011498449
##########                DOCK_Rotatable_Bonds:                   5
##########                         Heavy_Atoms:                  21
##########                    Molecular_Weight:             331.198
##########                DOCK_Rotatable_Bonds:                   5
##########                       Formal_Charge:         1.30385e-07
##########                     HBond_Acceptors:                   7
##########                        HBond_Donors:                   1
##########                         Heavy_Atoms:                  21
##########                          Grid_Score:          -28.162067
##########                     Grid_vdw_energy:          -28.503412
##########                      Grid_es_energy:            0.341345
##########           Internal_energy_repulsive:            8.074576

@<TRIPOS>MOLECULE
ZINC000011498449
 37 38 1 0 0
SMALL
USER_CHARGES


@<TRIPOS>ATOM
      1 C1        -10.4262   -0.9642   55.5500 C.3     1  ZINC000011498449   -0.1500
      2 C2         -9.8963   -0.7769   54.1269 C.3     1  ZINC000011498449    0.0700
      3 H3         -9.5596   -1.7365   53.7346 H       1  ZINC000011498449    0.0600
      4 C4         -8.7230    0.2096   54.1432 C.3     1  ZINC000011498449    0.0800
      5 N5         -8.3549    0.5158   52.7517 N.am    1  ZINC000011498449   -0.6100
      6 C6         -7.0761    0.4243   52.3362 C.2     1  ZINC000011498449    0.5100
      7 O7         -6.2091    0.0839   53.1129 O.2     1  ZINC000011498449   -0.5300
      8 C8         -6.7236    0.7449   50.9065 C.3     1  ZINC000011498449    0.1000
      9 N9         -5.2665    0.7920   50.7616 N.am    1  ZINC000011498449   -0.7200
     10 C10        -4.7033    1.6548   49.8928 C.2     1  ZINC000011498449    0.5600
     11 O11        -5.4041    2.3949   49.2304 O.2     1  ZINC000011498449   -0.5100
     12 C12        -3.2342    1.7010   49.7454 C.ar    1  ZINC000011498449   -0.1300
     13 C13        -2.5927    0.8479   48.8453 C.ar    1  ZINC000011498449   -0.0600
     14 C14        -1.2213    0.8960   48.7117 C.ar    1  ZINC000011498449   -0.1100
     15 C15        -0.4789    1.7882   49.4681 C.ar    1  ZINC000011498449    0.0000
     16 Cl16        1.2473    1.8423   49.2930 Cl      1  ZINC000011498449   -0.0400
     17 C17        -1.1080    2.6374   50.3628 C.ar    1  ZINC000011498449   -0.1100
     18 C18        -2.4811    2.6030   50.5022 C.ar    1  ZINC000011498449    0.0300
     19 Cl19       -3.2688    3.6680   51.6241 Cl      1  ZINC000011498449   -0.0100
     20 C20        -9.4244    0.9244   51.8272 C.3     1  ZINC000011498449    0.0700
     21 C21       -10.5634   -0.0970   51.9238 C.3     1  ZINC000011498449    0.0500
     22 O22       -10.9366   -0.2591   53.2943 O.3     1  ZINC000011498449   -0.3700
     23 H23       -11.2615   -1.6643   55.5375 H       1  ZINC000011498449    0.0700
     24 H24        -9.6320   -1.3573   56.1846 H       1  ZINC000011498449    0.0800
     25 H25       -10.7626   -0.0042   55.9417 H       1  ZINC000011498449    0.0700
     26 H26        -9.0204    1.1253   54.6542 H       1  ZINC000011498449    0.0800
     27 H27        -7.8732   -0.2390   54.6576 H       1  ZINC000011498449    0.1000
     28 H28        -7.1291   -0.0256   50.2507 H       1  ZINC000011498449    0.1000
     29 H29        -7.1471    1.7121   50.6360 H       1  ZINC000011498449    0.1000
     30 H30        -4.7072    0.2022   51.2910 H       1  ZINC000011498449    0.4100
     31 H31        -3.1696    0.1514   48.2550 H       1  ZINC000011498449    0.1500
     32 H32        -0.7244    0.2362   48.0160 H       1  ZINC000011498449    0.1500
     33 H33        -0.5238    3.3308   50.9496 H       1  ZINC000011498449    0.1500
     34 H34        -9.7924    1.9120   52.1050 H       1  ZINC000011498449    0.0900
     35 H35        -9.0390    0.9491   50.8078 H       1  ZINC000011498449    0.1000
     36 H36       -11.4209    0.2588   51.3527 H       1  ZINC000011498449    0.1100
     37 H37       -10.2294   -1.0538   51.5226 H       1  ZINC000011498449    0.0600
@<TRIPOS>BOND
     1     1     2    1
     2     1    23    1
     3     1    24    1
     4     1    25    1
     5     2     3    1
     6     2    22    1
     7     2     4    1
     8     4     5    1
     9     4    26    1
    10     4    27    1
    11     5     6   am
    12     5    20    1
    13     6     7    2
    14     6     8    1
    15     8     9    1
    16     8    28    1
    17     8    29    1
    18     9    10   am
    19     9    30    1
    20    10    11    2
    21    10    12    1
    22    12    18   ar
    23    12    13   ar
    24    13    14   ar
    25    13    31    1
    26    14    15   ar
    27    14    32    1
    28    15    16    1
    29    15    17   ar
    30    17    18   ar
    31    17    33    1
    32    18    19    1
    33    20    21    1
    34    20    34    1
    35    20    35    1
    36    21    22    1
    37    21    36    1
    38    21    37    1
@<TRIPOS>SUBSTRUCTURE
     1 ZINC000011498449        1 TEMP              0 ****  ****    0 ROOT


##########                                Name:    ZINC000546115054
##########                DOCK_Rotatable_Bonds:                  10
##########                         Heavy_Atoms:                  26
##########                    Molecular_Weight:             363.457
##########                DOCK_Rotatable_Bonds:                  10
##########                       Formal_Charge:        -4.39584e-07
##########                     HBond_Acceptors:                   7
##########                        HBond_Donors:                   2
##########                         Heavy_Atoms:                  26
##########                          Grid_Score:          -28.141926
##########                     Grid_vdw_energy:          -28.154537
##########                      Grid_es_energy:            0.012612
##########           Internal_energy_repulsive:           40.327206

@<TRIPOS>MOLECULE
ZINC000546115054
 55 56 1 0 0
SMALL
USER_CHARGES


@<TRIPOS>ATOM
      1 C1        -14.0931   -1.6250   58.4291 C.3     1  ZINC000546115054   -0.1500
      2 C2        -12.6709   -2.1134   58.7116 C.3     1  ZINC000546115054    0.0600
      3 O3        -11.7670   -1.0081   58.6515 O.3     1  ZINC000546115054   -0.3700
      4 C4        -10.5503   -1.2125   59.3724 C.3     1  ZINC000546115054    0.0500
      5 H5        -10.2438   -2.2546   59.2816 H       1  ZINC000546115054    0.0700
      6 C6        -10.7664   -0.8696   60.8487 C.3     1  ZINC000546115054    0.0400
      7 O7         -9.5341   -1.0192   61.5565 O.3     1  ZINC000546115054   -0.3700
      8 C8         -8.4887   -0.1607   61.0958 C.3     1  ZINC000546115054    0.0600
      9 C9         -8.1811   -0.4750   59.6295 C.3     1  ZINC000546115054   -0.1600
     10 C10        -9.4571   -0.3056   58.7991 C.3     1  ZINC000546115054    0.1700
     11 H11        -9.7861    0.7327   58.8437 H       1  ZINC000546115054    0.1000
     12 N12        -9.1886   -0.6752   57.4071 N.am    1  ZINC000546115054   -0.7300
     13 C13        -8.9517    0.2828   56.4892 C.2     1  ZINC000546115054    0.7200
     14 O14        -8.9622    1.4538   56.8161 O.2     1  ZINC000546115054   -0.5900
     15 N15        -8.7031   -0.0574   55.2090 N.am    1  ZINC000546115054   -0.7200
     16 C16        -8.4473    0.9841   54.2108 C.3     1  ZINC000546115054    0.1600
     17 H17        -8.0727    1.8791   54.7075 H       1  ZINC000546115054    0.1200
     18 C18        -7.4062    0.4840   53.2074 C.3     1  ZINC000546115054   -0.1000
     19 C19        -7.1036    1.5742   52.2120 C.ar    1  ZINC000546115054   -0.0800
     20 C20        -6.6266    2.7961   52.6488 C.ar    1  ZINC000546115054   -0.1100
     21 C21        -6.3491    3.7960   51.7357 C.ar    1  ZINC000546115054   -0.1200
     22 C22        -6.5483    3.5744   50.3859 C.ar    1  ZINC000546115054   -0.1200
     23 C23        -7.0245    2.3524   49.9491 C.ar    1  ZINC000546115054   -0.1200
     24 C24        -7.2978    1.3508   50.8616 C.ar    1  ZINC000546115054   -0.1100
     25 C25        -9.7275    1.3103   53.4858 C.2     1  ZINC000546115054    0.5000
     26 O26        -9.9990    2.4629   53.2234 O.2     1  ZINC000546115054   -0.5200
     27 N27       -10.5708    0.3214   53.1290 N.am    1  ZINC000546115054   -0.6200
     28 C28       -10.2421   -1.0710   53.4444 C.3     1  ZINC000546115054    0.0800
     29 C29       -11.8162    0.6388   52.4258 C.3     1  ZINC000546115054    0.0700
     30 H30       -14.7826   -2.4680   58.4748 H       1  ZINC000546115054    0.0700
     31 H31       -14.3771   -0.8824   59.1748 H       1  ZINC000546115054    0.0600
     32 H32       -14.1329   -1.1766   57.4364 H       1  ZINC000546115054    0.0600
     33 H33       -12.6312   -2.5617   59.7043 H       1  ZINC000546115054    0.0500
     34 H34       -12.3869   -2.8559   57.9658 H       1  ZINC000546115054    0.0500
     35 H35       -11.1130    0.1601   60.9358 H       1  ZINC000546115054    0.0600
     36 H36       -11.5129   -1.5416   61.2725 H       1  ZINC000546115054    0.1000
     37 H37        -8.8054    0.8784   61.1862 H       1  ZINC000546115054    0.0600
     38 H38        -7.5943   -0.3217   61.6976 H       1  ZINC000546115054    0.1000
     39 H39        -7.4148    0.2083   59.2635 H       1  ZINC000546115054    0.0900
     40 H40        -7.8256   -1.5019   59.5440 H       1  ZINC000546115054    0.0800
     41 H41        -9.1815   -1.6094   57.1461 H       1  ZINC000546115054    0.3900
     42 H42        -8.6936   -0.9917   54.9485 H       1  ZINC000546115054    0.4000
     43 H43        -6.4931    0.2116   53.7367 H       1  ZINC000546115054    0.0900
     44 H44        -7.7964   -0.3884   52.6833 H       1  ZINC000546115054    0.1100
     45 H45        -6.4710    2.9692   53.7033 H       1  ZINC000546115054    0.1200
     46 H46        -5.9771    4.7509   52.0770 H       1  ZINC000546115054    0.1200
     47 H47        -6.3322    4.3560   49.6726 H       1  ZINC000546115054    0.1200
     48 H48        -7.1803    2.1792   48.8945 H       1  ZINC000546115054    0.1200
     49 H49        -7.6699    0.3960   50.5204 H       1  ZINC000546115054    0.1200
     50 H50       -10.6466   -1.3269   54.4237 H       1  ZINC000546115054    0.0600
     51 H51       -10.6758   -1.7267   52.6894 H       1  ZINC000546115054    0.0700
     52 H52        -9.1593   -1.1952   53.4548 H       1  ZINC000546115054    0.0800
     53 H53       -11.6391    0.6282   51.3503 H       1  ZINC000546115054    0.0600
     54 H54       -12.5743   -0.1032   52.6765 H       1  ZINC000546115054    0.0800
     55 H55       -12.1619    1.6275   52.7273 H       1  ZINC000546115054    0.0700
@<TRIPOS>BOND
     1     1     2    1
     2     1    30    1
     3     1    31    1
     4     1    32    1
     5     2     3    1
     6     2    33    1
     7     2    34    1
     8     3     4    1
     9     4     5    1
    10     4    10    1
    11     4     6    1
    12     6     7    1
    13     6    35    1
    14     6    36    1
    15     7     8    1
    16     8     9    1
    17     8    37    1
    18     8    38    1
    19     9    10    1
    20     9    39    1
    21     9    40    1
    22    10    11    1
    23    10    12    1
    24    12    13   am
    25    12    41    1
    26    13    14    2
    27    13    15   am
    28    15    16    1
    29    15    42    1
    30    16    17    1
    31    16    18    1
    32    16    25    1
    33    18    19    1
    34    18    43    1
    35    18    44    1
    36    19    24   ar
    37    19    20   ar
    38    20    21   ar
    39    20    45    1
    40    21    22   ar
    41    21    46    1
    42    22    23   ar
    43    22    47    1
    44    23    24   ar
    45    23    48    1
    46    24    49    1
    47    25    26    2
    48    25    27   am
    49    27    28    1
    50    27    29    1
    51    28    50    1
    52    28    51    1
    53    28    52    1
    54    29    53    1
    55    29    54    1
    56    29    55    1
@<TRIPOS>SUBSTRUCTURE
     1 ZINC000546115054        1 TEMP              0 ****  ****    0 ROOT


##########                                Name:    ZINC000826052721
##########                DOCK_Rotatable_Bonds:                   3
##########                         Heavy_Atoms:                  29
##########                    Molecular_Weight:             393.399
##########                DOCK_Rotatable_Bonds:                   3
##########                       Formal_Charge:        -4.47035e-07
##########                     HBond_Acceptors:                   9
##########                        HBond_Donors:                   2
##########                         Heavy_Atoms:                  29
##########                          Grid_Score:          -28.092951
##########                     Grid_vdw_energy:          -24.545712
##########                      Grid_es_energy:           -3.547240
##########           Internal_energy_repulsive:           14.561899

@<TRIPOS>MOLECULE
ZINC000826052721
 46 50 1 0 0
SMALL
USER_CHARGES


@<TRIPOS>ATOM
      1 C1         -7.1595    3.2056   55.9689 C.3     1  ZINC000826052721   -0.0400
      2 N2         -6.5923    2.5194   54.8004 N.4     1  ZINC000826052721   -0.3800
      3 H3         -5.9220    1.8300   55.1061 H       1  ZINC000826052721    0.4300
      4 C4         -5.9298    3.4963   53.9316 C.3     1  ZINC000826052721    0.0500
      5 C5         -5.4690    2.8433   52.6554 C.ar    1  ZINC000826052721   -0.1300
      6 C6         -4.5011    3.4825   51.8956 C.ar    1  ZINC000826052721   -0.1000
      7 C7         -4.0560    2.9197   50.7159 C.ar    1  ZINC000826052721   -0.1000
      8 C8         -4.5772    1.7129   50.2887 C.ar    1  ZINC000826052721   -0.0800
      9 C9         -5.5401    1.0741   51.0449 C.ar    1  ZINC000826052721   -0.0800
     10 C10        -5.9864    1.6379   52.2296 C.ar    1  ZINC000826052721   -0.1200
     11 C11        -7.0361    0.9075   53.0277 C.3     1  ZINC000826052721    0.1100
     12 H12        -6.5750    0.0710   53.5529 H       1  ZINC000826052721    0.1100
     13 N13        -8.0753    0.4020   52.1210 N.3     1  ZINC000826052721   -0.6200
     14 C14        -9.3250    0.8597   52.4955 C.ar    1  ZINC000826052721    0.1600
     15 C15        -9.8172    2.0825   52.0266 C.ar    1  ZINC000826052721   -0.0400
     16 C16        -9.0041    2.9137   51.1153 C.2     1  ZINC000826052721    0.0700
     17 N17        -8.4132    2.5174   49.9854 N.2     1  ZINC000826052721   -0.3800
     18 N18        -7.8066    3.5399   49.4867 N.2     1  ZINC000826052721   -0.1600
     19 N19        -7.9825    4.5559   50.2566 N.2     1  ZINC000826052721   -0.1700
     20 N20        -8.7104    4.2079   51.2620 N.pl3   1  ZINC000826052721   -0.3400
     21 C21       -11.0918    2.5092   52.4263 C.ar    1  ZINC000826052721    0.1800
     22 N22       -11.8324    1.7960   53.2368 N.ar    1  ZINC000826052721   -0.4700
     23 C23       -11.4176    0.6194   53.7252 C.ar    1  ZINC000826052721    0.0900
     24 C24       -12.2333   -0.1258   54.5961 C.ar    1  ZINC000826052721    0.1700
     25 F25       -13.4510    0.3406   54.9492 F       1  ZINC000826052721   -0.1100
     26 C26       -11.7913   -1.3209   55.0819 C.ar    1  ZINC000826052721   -0.1900
     27 C27       -10.5383   -1.8195   54.7298 C.ar    1  ZINC000826052721    0.1300
     28 F28       -10.1278   -3.0064   55.2277 F       1  ZINC000826052721   -0.1300
     29 C29        -9.7211   -1.1220   53.8878 C.ar    1  ZINC000826052721   -0.1500
     30 C30       -10.1459    0.1097   53.3704 C.ar    1  ZINC000826052721   -0.0600
     31 C31        -7.6674    1.8600   54.0440 C.3     1  ZINC000826052721    0.0000
     32 H32        -7.8861    3.9475   55.6373 H       1  ZINC000826052721    0.1200
     33 H33        -7.6519    2.4779   56.6141 H       1  ZINC000826052721    0.1300
     34 H34        -6.3616    3.7005   56.5224 H       1  ZINC000826052721    0.1200
     35 H35        -5.0686    3.9148   54.4526 H       1  ZINC000826052721    0.1400
     36 H36        -6.6290    4.2978   53.6932 H       1  ZINC000826052721    0.1400
     37 H37        -4.0930    4.4253   52.2285 H       1  ZINC000826052721    0.1300
     38 H38        -3.3018    3.4215   50.1280 H       1  ZINC000826052721    0.1300
     39 H39        -4.2318    1.2704   49.3660 H       1  ZINC000826052721    0.1300
     40 H40        -5.9469    0.1308   50.7118 H       1  ZINC000826052721    0.1400
     41 H41        -8.0577   -0.6058   52.0767 H       1  ZINC000826052721    0.4100
     42 H42       -11.4703    3.4519   52.0595 H       1  ZINC000826052721    0.1800
     43 H43       -12.4214   -1.8894   55.7499 H       1  ZINC000826052721    0.1600
     44 H44        -8.7517   -1.5171   53.6218 H       1  ZINC000826052721    0.1400
     45 H45        -8.2620    2.6099   53.5224 H       1  ZINC000826052721    0.1400
     46 H46        -8.3023    1.2968   54.7281 H       1  ZINC000826052721    0.1400
@<TRIPOS>BOND
     1     1     2    1
     2     1    32    1
     3     1    33    1
     4     1    34    1
     5     2     3    1
     6     2    31    1
     7     2     4    1
     8     4     5    1
     9     4    35    1
    10     4    36    1
    11     5    10   ar
    12     5     6   ar
    13     6     7   ar
    14     6    37    1
    15     7     8   ar
    16     7    38    1
    17     8     9   ar
    18     8    39    1
    19     9    10   ar
    20     9    40    1
    21    10    11    1
    22    11    12    1
    23    11    13    1
    24    11    31    1
    25    13    14    1
    26    13    41    1
    27    14    30   ar
    28    14    15   ar
    29    15    16    1
    30    15    21   ar
    31    16    20    1
    32    16    17    2
    33    17    18    1
    34    18    19    2
    35    19    20    1
    36    21    22   ar
    37    21    42    1
    38    22    23   ar
    39    23    30   ar
    40    23    24   ar
    41    24    25    1
    42    24    26   ar
    43    26    27   ar
    44    26    43    1
    45    27    28    1
    46    27    29   ar
    47    29    30   ar
    48    29    44    1
    49    31    45    1
    50    31    46    1
@<TRIPOS>SUBSTRUCTURE
     1 ZINC000826052721        1 TEMP              0 ****  ****    0 ROOT


##########                                Name:    ZINC000337709254
##########                DOCK_Rotatable_Bonds:                   7
##########                         Heavy_Atoms:                  22
##########                    Molecular_Weight:              329.42
##########                DOCK_Rotatable_Bonds:                   7
##########                       Formal_Charge:           0.0300004
##########                     HBond_Acceptors:                   8
##########                        HBond_Donors:                   2
##########                         Heavy_Atoms:                  22
##########                          Grid_Score:          -28.082495
##########                     Grid_vdw_energy:          -27.928926
##########                      Grid_es_energy:           -0.153568
##########           Internal_energy_repulsive:            9.683946

@<TRIPOS>MOLECULE
ZINC000337709254
 45 46 1 0 0
SMALL
USER_CHARGES


@<TRIPOS>ATOM
      1 C1         -6.5452    2.3035   58.0224 C.3     1  ZINC000337709254   -0.6700
      2 S2         -7.9446    1.3253   58.6352 S.o2    1  ZINC000337709254    2.6100
      3 O3         -7.6053    0.6790   59.8543 O.2     1  ZINC000337709254   -0.9500
      4 O4         -9.1574    2.0545   58.5053 O.2     1  ZINC000337709254   -0.9500
      5 N5         -8.0931    0.0882   57.5445 N.am    1  ZINC000337709254   -1.1200
      6 C6         -8.3574    0.3829   56.1341 C.3     1  ZINC000337709254    0.1200
      7 C7         -9.4697   -0.5340   55.6211 C.3     1  ZINC000337709254   -0.1100
      8 H8         -9.4116   -1.5096   56.1039 H       1  ZINC000337709254    0.1100
      9 C9        -10.8576    0.1092   55.8642 C.3     1  ZINC000337709254   -0.1200
     10 C10       -11.7469   -0.5859   54.8035 C.3     1  ZINC000337709254   -0.1200
     11 C11       -10.8320   -0.7141   53.5680 C.3     1  ZINC000337709254   -0.1400
     12 C12        -9.3820   -0.6839   54.0883 C.3     1  ZINC000337709254    0.1500
     13 H13        -8.8728   -1.6122   53.8289 H       1  ZINC000337709254    0.1000
     14 N14        -8.6664    0.4579   53.5137 N.am    1  ZINC000337709254   -0.7200
     15 C15        -8.0725    0.3443   52.3092 C.2     1  ZINC000337709254    0.5300
     16 O16        -8.1294   -0.7038   51.7015 O.2     1  ZINC000337709254   -0.5100
     17 C17        -7.3380    1.5195   51.7174 C.3     1  ZINC000337709254    0.0200
     18 C18        -8.2712    2.6434   51.5368 C.1     1  ZINC000337709254    0.2000
     19 N19        -8.9914    3.5108   51.3974 N.1     1  ZINC000337709254   -0.3900
     20 C20        -6.2026    1.9395   52.6559 C.3     1  ZINC000337709254   -0.1500
     21 C21        -5.4137    3.0818   52.0106 C.3     1  ZINC000337709254    0.0600
     22 O22        -4.9161    2.6571   50.7401 O.3     1  ZINC000337709254   -0.3700
     23 C23        -5.9350    2.2971   49.8050 C.3     1  ZINC000337709254    0.0600
     24 C24        -6.7449    1.1232   50.3618 C.3     1  ZINC000337709254   -0.1300
     25 H25        -5.6519    1.6795   57.9908 H       1  ZINC000337709254    0.1300
     26 H26        -6.7686    2.6691   57.0201 H       1  ZINC000337709254    0.1300
     27 H27        -6.3739    3.1495   58.6880 H       1  ZINC000337709254    0.1300
     28 H28        -8.0052   -0.8317   57.8396 H       1  ZINC000337709254    0.4200
     29 H29        -8.6678    1.4227   56.0320 H       1  ZINC000337709254    0.0600
     30 H30        -7.4512    0.2155   55.5519 H       1  ZINC000337709254    0.0900
     31 H31       -11.2140   -0.1099   56.8707 H       1  ZINC000337709254    0.0800
     32 H32       -10.8203    1.1849   55.6920 H       1  ZINC000337709254    0.0700
     33 H33       -12.0574   -1.5708   55.1521 H       1  ZINC000337709254    0.0700
     34 H34       -12.6164    0.0294   54.5721 H       1  ZINC000337709254    0.0700
     35 H35       -11.0240   -1.6578   53.0575 H       1  ZINC000337709254    0.0800
     36 H36       -11.0037    0.1203   52.8881 H       1  ZINC000337709254    0.0700
     37 H37        -8.6198    1.2958   54.0003 H       1  ZINC000337709254    0.4000
     38 H38        -6.6201    2.2758   53.6049 H       1  ZINC000337709254    0.0900
     39 H39        -5.5401    1.0914   52.8285 H       1  ZINC000337709254    0.1100
     40 H40        -6.0670    3.9438   51.8753 H       1  ZINC000337709254    0.0500
     41 H41        -4.5784    3.3562   52.6549 H       1  ZINC000337709254    0.1100
     42 H42        -6.5952    3.1488   49.6410 H       1  ZINC000337709254    0.0500
     43 H43        -5.4753    2.0060   48.8606 H       1  ZINC000337709254    0.1100
     44 H44        -6.0933    0.2585   50.4881 H       1  ZINC000337709254    0.1100
     45 H45        -7.5501    0.8757   49.6702 H       1  ZINC000337709254    0.0900
@<TRIPOS>BOND
     1     1     2    1
     2     1    25    1
     3     1    26    1
     4     1    27    1
     5     2     3    2
     6     2     4    2
     7     2     5   am
     8     5     6    1
     9     5    28    1
    10     6     7    1
    11     6    29    1
    12     6    30    1
    13     7     8    1
    14     7    12    1
    15     7     9    1
    16     9    10    1
    17     9    31    1
    18     9    32    1
    19    10    11    1
    20    10    33    1
    21    10    34    1
    22    11    12    1
    23    11    35    1
    24    11    36    1
    25    12    13    1
    26    12    14    1
    27    14    15   am
    28    14    37    1
    29    15    16    2
    30    15    17    1
    31    17    24    1
    32    17    18    1
    33    17    20    1
    34    18    19    3
    35    20    21    1
    36    20    38    1
    37    20    39    1
    38    21    22    1
    39    21    40    1
    40    21    41    1
    41    22    23    1
    42    23    24    1
    43    23    42    1
    44    23    43    1
    45    24    44    1
    46    24    45    1
@<TRIPOS>SUBSTRUCTURE
     1 ZINC000337709254        1 TEMP              0 ****  ****    0 ROOT


##########                                Name:    ZINC000811540126
##########                DOCK_Rotatable_Bonds:                   7
##########                         Heavy_Atoms:                  21
##########                    Molecular_Weight:             397.212
##########                DOCK_Rotatable_Bonds:                   7
##########                       Formal_Charge:           0.0100001
##########                     HBond_Acceptors:                   4
##########                        HBond_Donors:                   3
##########                         Heavy_Atoms:                  21
##########                          Grid_Score:          -28.068871
##########                     Grid_vdw_energy:          -28.014889
##########                      Grid_es_energy:           -0.053982
##########           Internal_energy_repulsive:           12.236527

@<TRIPOS>MOLECULE
ZINC000811540126
 37 38 1 0 0
SMALL
USER_CHARGES


@<TRIPOS>ATOM
      1 C1        -11.0541   -0.1154   52.1822 C.3     1  ZINC000811540126   -0.1600
      2 C2         -9.6876    0.2019   52.7930 C.3     1  ZINC000811540126    0.1200
      3 H3         -9.6438    1.2587   53.0563 H       1  ZINC000811540126    0.1000
      4 N4         -9.4903   -0.6097   53.9966 N.am    1  ZINC000811540126   -0.7200
      5 C5        -10.1515   -0.3049   55.1308 C.2     1  ZINC000811540126    0.5700
      6 O6        -10.9106    0.6447   55.1555 O.2     1  ZINC000811540126   -0.5100
      7 C7         -9.9543   -1.1233   56.3423 C.ar    1  ZINC000811540126   -0.1600
      8 C8         -9.4156   -0.5506   57.4968 C.ar    1  ZINC000811540126   -0.0400
      9 C9         -9.2338   -1.3210   58.6257 C.ar    1  ZINC000811540126   -0.1200
     10 I10        -8.4258   -0.4606   60.3565 I       1  ZINC000811540126   -0.0300
     11 C11        -9.5835   -2.6617   58.6206 C.ar    1  ZINC000811540126   -0.0400
     12 C12       -10.1166   -3.2401   57.4856 C.ar    1  ZINC000811540126   -0.1500
     13 C13       -10.3116   -2.4787   56.3433 C.ar    1  ZINC000811540126    0.1900
     14 O14       -10.8357   -3.0457   55.2278 O.3     1  ZINC000811540126   -0.4700
     15 C15        -8.5887   -0.1167   51.7773 C.3     1  ZINC000811540126    0.1400
     16 H16        -9.0047   -0.7168   50.9681 H       1  ZINC000811540126    0.1300
     17 O17        -7.5416   -0.8456   52.4211 O.3     1  ZINC000811540126   -0.5400
     18 C18        -8.0351    1.1679   51.2165 C.ar    1  ZINC000811540126   -0.1200
     19 C19        -8.8667    2.2566   51.0324 C.ar    1  ZINC000811540126   -0.1100
     20 C20        -8.3590    3.4350   50.5180 C.ar    1  ZINC000811540126   -0.1100
     21 C21        -7.0195    3.5247   50.1882 C.ar    1  ZINC000811540126   -0.1200
     22 C22        -6.1878    2.4361   50.3731 C.ar    1  ZINC000811540126   -0.1100
     23 C23        -6.6947    1.2592   50.8915 C.ar    1  ZINC000811540126   -0.1100
     24 H24       -11.8371    0.1115   52.9059 H       1  ZINC000811540126    0.0600
     25 H25       -11.2008    0.4884   51.2868 H       1  ZINC000811540126    0.0700
     26 H26       -11.0979   -1.1722   51.9190 H       1  ZINC000811540126    0.0700
     27 H27        -8.8839   -1.3666   53.9772 H       1  ZINC000811540126    0.3900
     28 H28        -9.1417    0.4941   57.5050 H       1  ZINC000811540126    0.1300
     29 H29        -9.4381   -3.2578   59.5093 H       1  ZINC000811540126    0.1400
     30 H30       -10.3864   -4.2859   57.4893 H       1  ZINC000811540126    0.1500
     31 H31       -10.8957   -2.4451   54.4723 H       1  ZINC000811540126    0.4000
     32 H32        -7.1985   -0.4195   53.2184 H       1  ZINC000811540126    0.3700
     33 H33        -9.9132    2.1866   51.2900 H       1  ZINC000811540126    0.1100
     34 H34        -9.0088    4.2854   50.3735 H       1  ZINC000811540126    0.1200
     35 H35        -6.6230    4.4450   49.7856 H       1  ZINC000811540126    0.1200
     36 H36        -5.1413    2.5062   50.1151 H       1  ZINC000811540126    0.1300
     37 H37        -6.0448    0.4088   51.0361 H       1  ZINC000811540126    0.1200
@<TRIPOS>BOND
     1     1     2    1
     2     1    24    1
     3     1    25    1
     4     1    26    1
     5     2     3    1
     6     2     4    1
     7     2    15    1
     8     4     5   am
     9     4    27    1
    10     5     6    2
    11     5     7    1
    12     7    13   ar
    13     7     8   ar
    14     8     9   ar
    15     8    28    1
    16     9    10    1
    17     9    11   ar
    18    11    12   ar
    19    11    29    1
    20    12    13   ar
    21    12    30    1
    22    13    14    1
    23    14    31    1
    24    15    16    1
    25    15    17    1
    26    15    18    1
    27    17    32    1
    28    18    23   ar
    29    18    19   ar
    30    19    20   ar
    31    19    33    1
    32    20    21   ar
    33    20    34    1
    34    21    22   ar
    35    21    35    1
    36    22    23   ar
    37    22    36    1
    38    23    37    1
@<TRIPOS>SUBSTRUCTURE
     1 ZINC000811540126        1 TEMP              0 ****  ****    0 ROOT


##########                                Name:    ZINC000163855860
##########                DOCK_Rotatable_Bonds:                   6
##########                         Heavy_Atoms:                  28
##########                    Molecular_Weight:             398.483
##########                DOCK_Rotatable_Bonds:                   6
##########                       Formal_Charge:          -0.0100004
##########                     HBond_Acceptors:                   7
##########                        HBond_Donors:                   1
##########                         Heavy_Atoms:                  28
##########                          Grid_Score:          -28.060989
##########                     Grid_vdw_energy:          -27.855972
##########                      Grid_es_energy:           -0.205016
##########           Internal_energy_repulsive:           14.962814

@<TRIPOS>MOLECULE
ZINC000163855860
 50 53 1 0 0
SMALL
USER_CHARGES


@<TRIPOS>ATOM
      1 C1         -8.7115    1.2086   54.5503 C.3     1  ZINC000163855860   -0.1300
      2 C2        -10.0878    0.9289   54.0036 C.ar    1  ZINC000163855860   -0.0600
      3 C3        -10.2471    0.5589   52.6774 C.ar    1  ZINC000163855860    0.1400
      4 N4         -9.1289    0.4440   51.8438 N.am    1  ZINC000163855860   -0.6700
      5 C5         -8.6636    1.5253   51.1875 C.2     1  ZINC000163855860    0.5100
      6 O6         -9.2140    2.5980   51.3194 O.2     1  ZINC000163855860   -0.5100
      7 C7         -7.4595    1.4015   50.2898 C.3     1  ZINC000163855860   -0.1300
      8 C8         -6.1949    1.7347   51.0841 C.3     1  ZINC000163855860   -0.1100
      9 H9         -6.1034    1.0905   51.9586 H       1  ZINC000163855860    0.1100
     10 C10        -4.9391    1.6297   50.1890 C.3     1  ZINC000163855860    0.0600
     11 O11        -4.0572    2.6848   50.6746 O.3     1  ZINC000163855860   -0.3500
     12 C12        -4.7850    3.7046   51.1516 C.2     1  ZINC000163855860    0.4800
     13 O13        -4.3878    4.8375   51.2881 O.2     1  ZINC000163855860   -0.4500
     14 C14        -6.1787    3.2242   51.4936 C.3     1  ZINC000163855860   -0.1800
     15 C15       -11.5170    0.2963   52.1770 C.ar    1  ZINC000163855860   -0.1100
     16 C16       -12.6244    0.4075   52.9964 C.ar    1  ZINC000163855860   -0.1100
     17 C17       -12.4768    0.7799   54.3173 C.ar    1  ZINC000163855860   -0.1000
     18 C18       -11.2059    1.0462   54.8293 C.ar    1  ZINC000163855860   -0.1100
     19 C19       -11.0449    1.4449   56.2440 C.2     1  ZINC000163855860    0.5700
     20 O20       -10.8790    2.6144   56.5307 O.2     1  ZINC000163855860   -0.5300
     21 N21       -11.0820    0.5117   57.2156 N.am    1  ZINC000163855860   -0.6100
     22 C22       -11.2817   -0.9087   56.8905 C.3     1  ZINC000163855860    0.1200
     23 C23       -10.0095   -1.6769   57.2816 C.3     1  ZINC000163855860   -0.0600
     24 C24        -9.5680   -1.2325   58.6599 C.2     1  ZINC000163855860   -0.1700
     25 C25        -9.9606   -0.0985   59.2704 C.2     1  ZINC000163855860   -0.1300
     26 C26        -9.4013    0.0832   60.5313 C.2     1  ZINC000163855860   -0.1200
     27 C27        -8.5794   -0.8782   60.9401 C.2     1  ZINC000163855860   -0.2100
     28 S28        -8.4602   -2.1180   59.7006 S.3     1  ZINC000163855860    0.1100
     29 C29       -10.9301    0.8872   58.6284 C.3     1  ZINC000163855860    0.1700
     30 H30        -8.5112    2.2789   54.5000 H       1  ZINC000163855860    0.0700
     31 H31        -8.6583    0.8774   55.5873 H       1  ZINC000163855860    0.0900
     32 H32        -7.9697    0.6719   53.9589 H       1  ZINC000163855860    0.0700
     33 H33        -8.6886   -0.4140   51.7384 H       1  ZINC000163855860    0.4100
     34 H34        -7.5566    2.0943   49.4540 H       1  ZINC000163855860    0.1100
     35 H35        -7.3923    0.3819   49.9106 H       1  ZINC000163855860    0.1100
     36 H36        -5.2002    1.8024   49.1449 H       1  ZINC000163855860    0.0800
     37 H37        -4.4671    0.6545   50.3081 H       1  ZINC000163855860    0.1200
     38 H38        -6.3632    3.3256   52.5631 H       1  ZINC000163855860    0.1200
     39 H39        -6.9226    3.7822   50.9249 H       1  ZINC000163855860    0.1200
     40 H40       -11.6387    0.0041   51.1444 H       1  ZINC000163855860    0.1500
     41 H41       -13.6085    0.2018   52.6020 H       1  ZINC000163855860    0.1300
     42 H42       -13.3446    0.8657   54.9544 H       1  ZINC000163855860    0.1300
     43 H43       -12.1327   -1.2962   57.4506 H       1  ZINC000163855860    0.0800
     44 H44       -11.4637   -1.0174   55.8213 H       1  ZINC000163855860    0.1000
     45 H45        -9.2191   -1.4681   56.5606 H       1  ZINC000163855860    0.0900
     46 H46       -10.2189   -2.7466   57.2933 H       1  ZINC000163855860    0.0900
     47 H47        -9.6205    0.9490   61.1384 H       1  ZINC000163855860    0.1400
     48 H48        -8.0641   -0.8951   61.8891 H       1  ZINC000163855860    0.1700
     49 H49       -10.5301    1.8987   58.7005 H       1  ZINC000163855860    0.1000
     50 H50       -11.8965    0.8359   59.1301 H       1  ZINC000163855860    0.0900
@<TRIPOS>BOND
     1     1     2    1
     2     1    30    1
     3     1    31    1
     4     1    32    1
     5     2    18   ar
     6     2     3   ar
     7     3     4    1
     8     3    15   ar
     9     4     5   am
    10     4    33    1
    11     5     6    2
    12     5     7    1
    13     7     8    1
    14     7    34    1
    15     7    35    1
    16     8     9    1
    17     8    14    1
    18     8    10    1
    19    10    11    1
    20    10    36    1
    21    10    37    1
    22    11    12    1
    23    12    13    2
    24    12    14    1
    25    14    38    1
    26    14    39    1
    27    15    16   ar
    28    15    40    1
    29    16    17   ar
    30    16    41    1
    31    17    18   ar
    32    17    42    1
    33    18    19    1
    34    19    20    2
    35    19    21   am
    36    21    29    1
    37    21    22    1
    38    22    23    1
    39    22    43    1
    40    22    44    1
    41    23    24    1
    42    23    45    1
    43    23    46    1
    44    24    28    1
    45    24    25    2
    46    25    26    1
    47    25    29    1
    48    26    27    2
    49    26    47    1
    50    27    28    1
    51    27    48    1
    52    29    49    1
    53    29    50    1
@<TRIPOS>SUBSTRUCTURE
     1 ZINC000163855860        1 TEMP              0 ****  ****    0 ROOT


##########                                Name:    ZINC001356153960
##########                DOCK_Rotatable_Bonds:                   8
##########                         Heavy_Atoms:                  24
##########                    Molecular_Weight:             334.366
##########                DOCK_Rotatable_Bonds:                   8
##########                       Formal_Charge:           0.0100003
##########                     HBond_Acceptors:                   6
##########                        HBond_Donors:                   1
##########                         Heavy_Atoms:                  24
##########                          Grid_Score:          -28.026466
##########                     Grid_vdw_energy:          -27.466879
##########                      Grid_es_energy:           -0.559588
##########           Internal_energy_repulsive:           16.003313

@<TRIPOS>MOLECULE
ZINC001356153960
 44 46 1 0 0
SMALL
USER_CHARGES


@<TRIPOS>ATOM
      1 O1         -7.7199   -0.4164   51.3126 O.2     1  ZINC001356153960   -0.5200
      2 C2         -8.1546    0.7110   51.2005 C.2     1  ZINC001356153960    0.5100
      3 N3         -9.3887    1.0056   51.6555 N.am    1  ZINC001356153960   -0.7000
      4 C4        -10.2026   -0.0336   52.2908 C.3     1  ZINC001356153960    0.1300
      5 C5        -10.2271    0.1916   53.8040 C.3     1  ZINC001356153960   -0.0800
      6 H6        -10.0323    1.2390   54.0344 H       1  ZINC001356153960    0.0900
      7 C7        -11.5582   -0.2349   54.3781 C.2     1  ZINC001356153960   -0.1700
      8 C8        -11.3974   -0.9322   55.4697 C.2     1  ZINC001356153960   -0.1600
      9 C9         -9.9323   -1.0870   55.8056 C.3     1  ZINC001356153960   -0.1000
     10 C10        -9.1867   -0.7157   54.5006 C.3     1  ZINC001356153960   -0.1200
     11 C11        -7.3244    1.7711   50.5525 C.2     1  ZINC001356153960    0.5100
     12 O12        -7.4721    2.0221   49.3744 O.2     1  ZINC001356153960   -0.5100
     13 N13        -6.4114    2.4486   51.2765 N.am    1  ZINC001356153960   -0.5500
     14 C14        -5.5975    3.4879   50.6413 C.3     1  ZINC001356153960    0.1300
     15 C15        -4.1801    2.9973   50.4961 C.ar    1  ZINC001356153960   -0.1600
     16 C16        -3.9164    1.8527   49.7682 C.ar    1  ZINC001356153960   -0.0300
     17 C17        -2.6162    1.4046   49.6295 C.ar    1  ZINC001356153960   -0.1700
     18 C18        -1.5774    2.0960   50.2294 C.ar    1  ZINC001356153960    0.1400
     19 F19        -0.3072    1.6551   50.0981 F       1  ZINC001356153960   -0.1300
     20 C20        -1.8410    3.2398   50.9638 C.ar    1  ZINC001356153960   -0.2000
     21 C21        -3.1426    3.6906   51.0972 C.ar    1  ZINC001356153960    0.1500
     22 F22        -3.4012    4.8063   51.8137 F       1  ZINC001356153960   -0.1200
     23 C23        -6.2331    2.1458   52.6988 C.3     1  ZINC001356153960    0.0700
     24 C24        -7.1946    2.8078   53.6879 C.3     1  ZINC001356153960   -0.1900
     25 C25        -5.7393    3.2752   53.6051 C.3     1  ZINC001356153960   -0.1800
     26 H26        -9.7378    1.9058   51.5624 H       1  ZINC001356153960    0.4100
     27 H27       -11.2193    0.0117   51.9002 H       1  ZINC001356153960    0.0800
     28 H28        -9.7742   -1.0127   52.0761 H       1  ZINC001356153960    0.0800
     29 H29       -12.5166    0.0053   53.9423 H       1  ZINC001356153960    0.1200
     30 H30       -12.2053   -1.3447   56.0557 H       1  ZINC001356153960    0.1300
     31 H31        -9.6525   -0.4045   56.6081 H       1  ZINC001356153960    0.0800
     32 H32        -9.7147   -2.1164   56.0904 H       1  ZINC001356153960    0.0700
     33 H33        -8.9790   -1.6034   53.9029 H       1  ZINC001356153960    0.0800
     34 H34        -8.2695   -0.1668   54.7145 H       1  ZINC001356153960    0.0800
     35 H35        -6.0051    3.7177   49.6569 H       1  ZINC001356153960    0.0900
     36 H36        -5.6095    4.3865   51.2583 H       1  ZINC001356153960    0.1400
     37 H37        -4.7265    1.3100   49.3039 H       1  ZINC001356153960    0.1600
     38 H38        -2.4109    0.5122   49.0570 H       1  ZINC001356153960    0.1400
     39 H39        -1.0314    3.7796   51.4323 H       1  ZINC001356153960    0.1500
     40 H40        -5.8954    1.1345   52.9254 H       1  ZINC001356153960    0.1400
     41 H41        -7.9598    3.4686   53.2804 H       1  ZINC001356153960    0.1400
     42 H42        -7.4890    2.2322   54.5653 H       1  ZINC001356153960    0.0900
     43 H43        -5.0770    3.0069   54.4281 H       1  ZINC001356153960    0.1000
     44 H44        -5.5470    4.2436   53.1430 H       1  ZINC001356153960    0.0900
@<TRIPOS>BOND
     1     1     2    2
     2     2     3   am
     3     2    11    1
     4     3     4    1
     5     3    26    1
     6     4     5    1
     7     4    27    1
     8     4    28    1
     9     5     6    1
    10     5    10    1
    11     5     7    1
    12     7     8    2
    13     7    29    1
    14     8     9    1
    15     8    30    1
    16     9    10    1
    17     9    31    1
    18     9    32    1
    19    10    33    1
    20    10    34    1
    21    11    12    2
    22    11    13   am
    23    13    14    1
    24    13    23    1
    25    14    15    1
    26    14    35    1
    27    14    36    1
    28    15    21   ar
    29    15    16   ar
    30    16    17   ar
    31    16    37    1
    32    17    18   ar
    33    17    38    1
    34    18    19    1
    35    18    20   ar
    36    20    21   ar
    37    20    39    1
    38    21    22    1
    39    23    25    1
    40    23    24    1
    41    23    40    1
    42    24    25    1
    43    24    41    1
    44    24    42    1
    45    25    43    1
    46    25    44    1
@<TRIPOS>SUBSTRUCTURE
     1 ZINC001356153960        1 TEMP              0 ****  ****    0 ROOT


##########                                Name:    ZINC000422507946
##########                DOCK_Rotatable_Bonds:                   7
##########                         Heavy_Atoms:                  25
##########                    Molecular_Weight:             364.484
##########                DOCK_Rotatable_Bonds:                   7
##########                       Formal_Charge:          0.00999952
##########                     HBond_Acceptors:                   6
##########                        HBond_Donors:                   1
##########                         Heavy_Atoms:                  25
##########                          Grid_Score:          -28.003063
##########                     Grid_vdw_energy:          -27.986526
##########                      Grid_es_energy:           -0.016537
##########           Internal_energy_repulsive:           37.137192

@<TRIPOS>MOLECULE
ZINC000422507946
 50 52 1 0 0
SMALL
USER_CHARGES


@<TRIPOS>ATOM
      1 C1         -6.7027    2.2189   50.9931 C.3     1  ZINC000422507946   -0.1400
      2 C2         -7.6720    1.0352   50.9850 C.3     1  ZINC000422507946   -0.0400
      3 H3         -7.9494    0.7791   49.9625 H       1  ZINC000422507946    0.1100
      4 C4         -8.9290    1.3638   51.8170 C.3     1  ZINC000422507946   -0.1400
      5 C5         -9.4351    0.0744   52.4868 C.3     1  ZINC000422507946    0.1400
      6 H6         -9.8832   -0.5816   51.7407 H       1  ZINC000422507946    0.1100
      7 N7        -10.4196    0.4012   53.5214 N.am    1  ZINC000422507946   -0.6900
      8 C8        -10.8599   -0.5580   54.3596 C.2     1  ZINC000422507946    0.5100
      9 O9        -10.4397   -1.6918   54.2584 O.2     1  ZINC000422507946   -0.5000
     10 C10       -11.8655   -0.2250   55.4138 C.2     1  ZINC000422507946    0.5100
     11 O11       -12.9541    0.2086   55.0986 O.2     1  ZINC000422507946   -0.5200
     12 N12       -11.5632   -0.4064   56.7147 N.am    1  ZINC000422507946   -0.5700
     13 C13       -12.5490   -0.0800   57.7481 C.3     1  ZINC000422507946    0.1400
     14 C14       -13.3820   -1.2988   58.0507 C.ar    1  ZINC000422507946   -0.0800
     15 C15       -13.8075   -1.5413   59.3432 C.ar    1  ZINC000422507946   -0.1100
     16 C16       -14.5719   -2.6591   59.6224 C.ar    1  ZINC000422507946   -0.0900
     17 C17       -14.9113   -3.5352   58.6092 C.ar    1  ZINC000422507946   -0.1500
     18 C18       -14.4860   -3.2930   57.3137 C.ar    1  ZINC000422507946    0.1000
     19 F19       -14.8172   -4.1489   56.3224 F       1  ZINC000422507946   -0.1400
     20 C20       -13.7251   -2.1706   57.0346 C.ar    1  ZINC000422507946   -0.1500
     21 C21       -10.2489   -0.9299   57.0953 C.3     1  ZINC000422507946    0.1400
     22 C22        -9.7421   -0.2136   58.3641 C.3     1  ZINC000422507946   -0.1200
     23 C23       -10.1525   -1.1566   59.5223 C.3     1  ZINC000422507946   -0.1300
     24 C24        -9.9143   -2.5630   58.9186 C.3     1  ZINC000422507946   -0.1200
     25 C25       -10.3584   -2.4236   57.4479 C.3     1  ZINC000422507946   -0.1600
     26 C26        -8.2017   -0.6154   53.1268 C.3     1  ZINC000422507946   -0.0900
     27 S27        -6.9222   -0.4094   51.8238 S.3     1  ZINC000422507946   -0.2700
     28 H28        -5.8086    1.9603   50.4257 H       1  ZINC000422507946    0.0700
     29 H29        -7.1834    3.0853   50.5387 H       1  ZINC000422507946    0.0700
     30 H30        -6.4254    2.4546   52.0206 H       1  ZINC000422507946    0.0700
     31 H31        -8.6797    2.0996   52.5815 H       1  ZINC000422507946    0.0900
     32 H32        -9.7044    1.7659   51.1650 H       1  ZINC000422507946    0.0900
     33 H33       -10.7546    1.3079   53.6030 H       1  ZINC000422507946    0.4100
     34 H34       -12.0336    0.2417   58.6532 H       1  ZINC000422507946    0.1100
     35 H35       -13.1952    0.7229   57.3932 H       1  ZINC000422507946    0.1000
     36 H36       -13.5423   -0.8572   60.1358 H       1  ZINC000422507946    0.1400
     37 H37       -14.9035   -2.8477   60.6327 H       1  ZINC000422507946    0.1300
     38 H38       -15.5078   -4.4086   58.8276 H       1  ZINC000422507946    0.1400
     39 H39       -13.3931   -1.9806   56.0246 H       1  ZINC000422507946    0.1400
     40 H40        -9.5408   -0.7900   56.2786 H       1  ZINC000422507946    0.1100
     41 H41        -8.6585   -0.0996   58.3308 H       1  ZINC000422507946    0.0800
     42 H42       -10.2255    0.7572   58.4731 H       1  ZINC000422507946    0.0600
     43 H43        -9.5172   -0.9976   60.3936 H       1  ZINC000422507946    0.0700
     44 H44       -11.2030   -1.0191   59.7785 H       1  ZINC000422507946    0.0600
     45 H45        -8.8587   -2.8285   58.9748 H       1  ZINC000422507946    0.0700
     46 H46       -10.5235   -3.3068   59.4323 H       1  ZINC000422507946    0.0700
     47 H47       -11.3895   -2.7591   57.3358 H       1  ZINC000422507946    0.0900
     48 H48        -9.7030   -3.0086   56.8029 H       1  ZINC000422507946    0.0800
     49 H49        -7.9067   -0.1084   54.0454 H       1  ZINC000422507946    0.1000
     50 H50        -8.3999   -1.6713   53.3114 H       1  ZINC000422507946    0.1100
@<TRIPOS>BOND
     1     1     2    1
     2     1    28    1
     3     1    29    1
     4     1    30    1
     5     2     3    1
     6     2    27    1
     7     2     4    1
     8     4     5    1
     9     4    31    1
    10     4    32    1
    11     5     6    1
    12     5     7    1
    13     5    26    1
    14     7     8   am
    15     7    33    1
    16     8     9    2
    17     8    10    1
    18    10    11    2
    19    10    12   am
    20    12    13    1
    21    12    21    1
    22    13    14    1
    23    13    34    1
    24    13    35    1
    25    14    20   ar
    26    14    15   ar
    27    15    16   ar
    28    15    36    1
    29    16    17   ar
    30    16    37    1
    31    17    18   ar
    32    17    38    1
    33    18    19    1
    34    18    20   ar
    35    20    39    1
    36    21    25    1
    37    21    22    1
    38    21    40    1
    39    22    23    1
    40    22    41    1
    41    22    42    1
    42    23    24    1
    43    23    43    1
    44    23    44    1
    45    24    25    1
    46    24    45    1
    47    24    46    1
    48    25    47    1
    49    25    48    1
    50    26    27    1
    51    26    49    1
    52    26    50    1
@<TRIPOS>SUBSTRUCTURE
     1 ZINC000422507946        1 TEMP              0 ****  ****    0 ROOT


##########                                Name:    ZINC000470948647
##########                DOCK_Rotatable_Bonds:                   6
##########                         Heavy_Atoms:                  29
##########                    Molecular_Weight:             412.556
##########                DOCK_Rotatable_Bonds:                   6
##########                       Formal_Charge:           0.0100001
##########                     HBond_Acceptors:                   7
##########                        HBond_Donors:                   1
##########                         Heavy_Atoms:                  29
##########                          Grid_Score:          -27.993797
##########                     Grid_vdw_energy:          -28.729347
##########                      Grid_es_energy:            0.735551
##########           Internal_energy_repulsive:           31.588182

@<TRIPOS>MOLECULE
ZINC000470948647
 57 60 1 0 0
SMALL
USER_CHARGES


@<TRIPOS>ATOM
      1 C1          1.1156    3.7223   50.9868 C.3     1  ZINC000470948647   -0.1100
      2 C2         -0.3485    3.3670   50.9541 C.ar    1  ZINC000470948647   -0.1000
      3 C3         -1.2271    3.9815   51.8270 C.ar    1  ZINC000470948647   -0.1100
      4 C4         -2.5698    3.6579   51.7995 C.ar    1  ZINC000470948647   -0.1100
      5 C5         -3.0367    2.7148   50.8939 C.ar    1  ZINC000470948647    0.1400
      6 N6         -4.3962    2.3851   50.8632 N.am    1  ZINC000470948647   -0.6700
      7 C7         -5.3227    3.3567   50.7444 C.2     1  ZINC000470948647    0.5100
      8 O8         -4.9780    4.5168   50.6640 O.2     1  ZINC000470948647   -0.4800
      9 C9         -6.7869    3.0017   50.7113 C.3     1  ZINC000470948647    0.1200
     10 H10        -7.3506    3.8739   50.3804 H       1  ZINC000470948647    0.1200
     11 C11        -6.9981    1.8580   49.6934 C.3     1  ZINC000470948647   -0.0700
     12 S12        -7.0275    0.3875   50.8023 S.3     1  ZINC000470948647   -0.2500
     13 C13        -7.7889    1.3036   52.2057 C.3     1  ZINC000470948647    0.1600
     14 N14        -7.2139    2.6518   52.0575 N.am    1  ZINC000470948647   -0.6000
     15 C15        -7.0937    3.5042   53.0947 C.2     1  ZINC000470948647    0.6300
     16 O16        -6.6133    4.6076   52.9221 O.2     1  ZINC000470948647   -0.5100
     17 C17        -7.5456    3.0978   54.4409 C.2     1  ZINC000470948647   -0.0100
     18 N18        -8.0764    1.9379   54.7732 N.2     1  ZINC000470948647   -0.2700
     19 N19        -8.3535    1.9230   56.0275 N.pl3   1  ZINC000470948647   -0.2700
     20 C20        -8.9548    0.7925   56.7393 C.3     1  ZINC000470948647    0.1500
     21 C21        -8.4774    0.7929   58.1930 C.3     1  ZINC000470948647   -0.1300
     22 C22        -9.1055   -0.3877   58.9364 C.3     1  ZINC000470948647   -0.1200
     23 C23       -10.6297   -0.2607   58.9000 C.3     1  ZINC000470948647   -0.1300
     24 C24       -11.1071   -0.2611   57.4464 C.3     1  ZINC000470948647   -0.1200
     25 C25       -10.4791    0.9195   56.7030 C.3     1  ZINC000470948647   -0.1300
     26 C26        -8.0107    3.0991   56.5955 C.2     1  ZINC000470948647   -0.0100
     27 C27        -7.4852    3.8771   55.6204 C.2     1  ZINC000470948647   -0.1700
     28 C28        -2.1515    2.0995   50.0180 C.ar    1  ZINC000470948647   -0.1100
     29 C29        -2.6541    1.0757   49.0331 C.3     1  ZINC000470948647   -0.1100
     30 C30        -0.8113    2.4310   50.0472 C.ar    1  ZINC000470948647   -0.1000
     31 H31         1.3027    4.5549   50.3084 H       1  ZINC000470948647    0.0700
     32 H32         1.3975    4.0088   52.0000 H       1  ZINC000470948647    0.0700
     33 H33         1.7058    2.8604   50.6754 H       1  ZINC000470948647    0.0700
     34 H34        -0.8634    4.7150   52.5311 H       1  ZINC000470948647    0.1200
     35 H35        -3.2555    4.1378   52.4821 H       1  ZINC000470948647    0.1400
     36 H36        -4.6719    1.4573   50.9274 H       1  ZINC000470948647    0.4100
     37 H37        -7.9465    1.9714   49.1682 H       1  ZINC000470948647    0.1200
     38 H38        -6.1674    1.8015   48.9900 H       1  ZINC000470948647    0.1200
     39 H39        -8.8739    1.3313   52.1059 H       1  ZINC000470948647    0.1000
     40 H40        -7.4983    0.8619   53.1589 H       1  ZINC000470948647    0.1400
     41 H41        -8.6564   -0.1395   56.2592 H       1  ZINC000470948647    0.1100
     42 H42        -7.3915    0.7025   58.2188 H       1  ZINC000470948647    0.0800
     43 H43        -8.7759    1.7249   58.6731 H       1  ZINC000470948647    0.0800
     44 H44        -8.8070   -1.3196   58.4562 H       1  ZINC000470948647    0.0700
     45 H45        -8.7654   -0.3874   59.9720 H       1  ZINC000470948647    0.0800
     46 H46       -11.0772   -1.1017   59.4296 H       1  ZINC000470948647    0.0700
     47 H47       -10.9282    0.6713   59.3802 H       1  ZINC000470948647    0.0700
     48 H48       -10.8086   -1.1930   56.9663 H       1  ZINC000470948647    0.0700
     49 H49       -12.1930   -0.1706   57.4206 H       1  ZINC000470948647    0.0700
     50 H50       -10.7775    1.8515   57.1832 H       1  ZINC000470948647    0.0700
     51 H51       -10.8191    0.9192   55.6674 H       1  ZINC000470948647    0.0700
     52 H52        -8.1291    3.3672   57.6350 H       1  ZINC000470948647    0.1800
     53 H53        -7.1063    4.8835   55.7202 H       1  ZINC000470948647    0.1600
     54 H54        -2.9401    1.5729   48.1062 H       1  ZINC000470948647    0.0700
     55 H55        -1.8661    0.3511   48.8283 H       1  ZINC000470948647    0.0700
     56 H56        -3.5197    0.5626   49.4522 H       1  ZINC000470948647    0.0600
     57 H57        -0.1226    1.9532   49.3662 H       1  ZINC000470948647    0.1300
@<TRIPOS>BOND
     1     1     2    1
     2     1    31    1
     3     1    32    1
     4     1    33    1
     5     2    30   ar
     6     2     3   ar
     7     3     4   ar
     8     3    34    1
     9     4     5   ar
    10     4    35    1
    11     5     6    1
    12     5    28   ar
    13     6     7   am
    14     6    36    1
    15     7     8    2
    16     7     9    1
    17     9    10    1
    18     9    14    1
    19     9    11    1
    20    11    12    1
    21    11    37    1
    22    11    38    1
    23    12    13    1
    24    13    14    1
    25    13    39    1
    26    13    40    1
    27    14    15   am
    28    15    16    2
    29    15    17    1
    30    17    27    1
    31    17    18    2
    32    18    19    1
    33    19    20    1
    34    19    26    1
    35    20    25    1
    36    20    21    1
    37    20    41    1
    38    21    22    1
    39    21    42    1
    40    21    43    1
    41    22    23    1
    42    22    44    1
    43    22    45    1
    44    23    24    1
    45    23    46    1
    46    23    47    1
    47    24    25    1
    48    24    48    1
    49    24    49    1
    50    25    50    1
    51    25    51    1
    52    26    27    2
    53    26    52    1
    54    27    53    1
    55    28    29    1
    56    28    30   ar
    57    29    54    1
    58    29    55    1
    59    29    56    1
    60    30    57    1
@<TRIPOS>SUBSTRUCTURE
     1 ZINC000470948647        1 TEMP              0 ****  ****    0 ROOT


##########                                Name:    ZINC001091652821
##########                DOCK_Rotatable_Bonds:                   4
##########                         Heavy_Atoms:                  24
##########                    Molecular_Weight:             345.465
##########                DOCK_Rotatable_Bonds:                   4
##########                       Formal_Charge:          -0.0199997
##########                     HBond_Acceptors:                   6
##########                        HBond_Donors:                   0
##########                         Heavy_Atoms:                  24
##########                          Grid_Score:          -27.992014
##########                     Grid_vdw_energy:          -28.624090
##########                      Grid_es_energy:            0.632076
##########           Internal_energy_repulsive:            3.111612

@<TRIPOS>MOLECULE
ZINC001091652821
 47 50 1 0 0
SMALL
USER_CHARGES


@<TRIPOS>ATOM
      1 C1         -8.1172    1.9799   53.8389 C.3     1  ZINC001091652821   -0.1000
      2 C2         -9.1479    0.8809   53.8698 C.2     1  ZINC001091652821   -0.1200
      3 C3        -10.1429    0.8044   52.9784 C.2     1  ZINC001091652821   -0.2400
      4 S4        -11.1346   -0.5495   53.2856 S.3     1  ZINC001091652821    0.2100
      5 C5        -10.1541   -1.0143   54.6691 C.2     1  ZINC001091652821   -0.2700
      6 C6        -10.3923   -2.1783   55.5277 C.2     1  ZINC001091652821    0.6100
      7 O7         -9.9438   -3.2660   55.2165 O.2     1  ZINC001091652821   -0.5200
      8 N8        -11.1081   -2.0438   56.6618 N.am    1  ZINC001091652821   -0.6200
      9 C9        -11.4297   -3.1046   57.6303 C.3     1  ZINC001091652821    0.0900
     10 C10       -11.5107   -2.4255   59.0073 C.3     1  ZINC001091652821   -0.0900
     11 H11       -12.3199   -2.8294   59.6157 H       1  ZINC001091652821    0.1100
     12 C12       -10.1422   -2.5453   59.7101 C.3     1  ZINC001091652821    0.0400
     13 N13        -9.9003   -1.2017   60.2952 N.3     1  ZINC001091652821   -0.5000
     14 C14        -8.4712   -0.9941   60.5641 C.3     1  ZINC001091652821    0.1200
     15 C15        -8.3110   -0.1115   61.7751 C.2     1  ZINC001091652821    0.0000
     16 C16        -8.2409    1.2300   61.7747 C.2     1  ZINC001091652821   -0.0800
     17 O17        -8.0997    1.6201   63.0567 O.3     1  ZINC001091652821   -0.2000
     18 C18        -8.0853    0.5189   63.8195 C.2     1  ZINC001091652821    0.1900
     19 C19        -7.9456    0.4923   65.3198 C.3     1  ZINC001091652821   -0.0600
     20 N20        -8.2181   -0.5246   63.0515 N.2     1  ZINC001091652821   -0.4700
     21 C21       -10.3890   -0.2586   59.2570 C.3     1  ZINC001091652821    0.0400
     22 C22       -11.7018   -0.9162   58.7076 C.3     1  ZINC001091652821   -0.0700
     23 C23       -12.9553   -0.3237   59.3546 C.3     1  ZINC001091652821   -0.1300
     24 C24       -11.7157   -0.8059   57.1770 C.3     1  ZINC001091652821    0.1200
     25 C25        -9.1310   -0.1198   54.8123 C.2     1  ZINC001091652821   -0.0500
     26 H26        -7.2780    1.6736   53.2143 H       1  ZINC001091652821    0.0700
     27 H27        -8.5640    2.8855   53.4284 H       1  ZINC001091652821    0.0700
     28 H28        -7.7642    2.1757   54.8513 H       1  ZINC001091652821    0.0700
     29 H29       -10.2980    1.5064   52.1724 H       1  ZINC001091652821    0.1700
     30 H30       -12.3879   -3.5607   57.3812 H       1  ZINC001091652821    0.0800
     31 H31       -10.6443   -3.8604   57.6316 H       1  ZINC001091652821    0.0800
     32 H32       -10.1834   -3.2997   60.4957 H       1  ZINC001091652821    0.0800
     33 H33        -9.3641   -2.7903   58.9873 H       1  ZINC001091652821    0.0500
     34 H34        -7.9930   -1.9558   60.7496 H       1  ZINC001091652821    0.0500
     35 H35        -8.0049   -0.5166   59.7023 H       1  ZINC001091652821    0.1000
     36 H36        -8.2886    1.8746   60.9094 H       1  ZINC001091652821    0.2100
     37 H37        -7.8569    1.5121   65.6946 H       1  ZINC001091652821    0.0900
     38 H38        -8.8243    0.0194   65.7583 H       1  ZINC001091652821    0.1000
     39 H39        -7.0545   -0.0735   65.5919 H       1  ZINC001091652821    0.1000
     40 H40       -10.6163    0.7106   59.7009 H       1  ZINC001091652821    0.0900
     41 H41        -9.6492   -0.1500   58.4640 H       1  ZINC001091652821    0.0500
     42 H42       -13.0086    0.7424   59.1339 H       1  ZINC001091652821    0.0600
     43 H43       -13.8395   -0.8217   58.9568 H       1  ZINC001091652821    0.0600
     44 H44       -12.9107   -0.4696   60.4339 H       1  ZINC001091652821    0.0700
     45 H45       -11.1159    0.0465   56.8579 H       1  ZINC001091652821    0.0900
     46 H46       -12.7396   -0.6984   56.8190 H       1  ZINC001091652821    0.0800
     47 H47        -8.3879   -0.1877   55.5929 H       1  ZINC001091652821    0.1500
@<TRIPOS>BOND
     1     1     2    1
     2     1    26    1
     3     1    27    1
     4     1    28    1
     5     2    25    1
     6     2     3    2
     7     3     4    1
     8     3    29    1
     9     4     5    1
    10     5     6    1
    11     5    25    2
    12     6     7    2
    13     6     8   am
    14     8    24    1
    15     8     9    1
    16     9    10    1
    17     9    30    1
    18     9    31    1
    19    10    11    1
    20    10    22    1
    21    10    12    1
    22    12    13    1
    23    12    32    1
    24    12    33    1
    25    13    14    1
    26    13    21    1
    27    14    15    1
    28    14    34    1
    29    14    35    1
    30    15    20    1
    31    15    16    2
    32    16    17    1
    33    16    36    1
    34    17    18    1
    35    18    19    1
    36    18    20    2
    37    19    37    1
    38    19    38    1
    39    19    39    1
    40    21    22    1
    41    21    40    1
    42    21    41    1
    43    22    23    1
    44    22    24    1
    45    23    42    1
    46    23    43    1
    47    23    44    1
    48    24    45    1
    49    24    46    1
    50    25    47    1
@<TRIPOS>SUBSTRUCTURE
     1 ZINC001091652821        1 TEMP              0 ****  ****    0 ROOT


##########                                Name:    ZINC000179211660
##########                DOCK_Rotatable_Bonds:                   6
##########                         Heavy_Atoms:                  23
##########                    Molecular_Weight:             385.208
##########                DOCK_Rotatable_Bonds:                   6
##########                       Formal_Charge:        -1.78814e-07
##########                     HBond_Acceptors:                   6
##########                        HBond_Donors:                   1
##########                         Heavy_Atoms:                  23
##########                          Grid_Score:          -27.962873
##########                     Grid_vdw_energy:          -27.905701
##########                      Grid_es_energy:           -0.057173
##########           Internal_energy_repulsive:           14.491910

@<TRIPOS>MOLECULE
ZINC000179211660
 38 39 1 0 0
SMALL
USER_CHARGES


@<TRIPOS>ATOM
      1 C1         -9.8375   -1.3052   54.2945 C.3     1  ZINC000179211660    0.0300
      2 O2         -8.8546   -0.7273   53.4332 O.3     1  ZINC000179211660   -0.2700
      3 C3         -8.3071    0.4529   53.8263 C.ar    1  ZINC000179211660    0.1500
      4 C4         -8.0173    0.6728   55.1648 C.ar    1  ZINC000179211660   -0.2200
      5 C5         -7.4603    1.8733   55.5618 C.ar    1  ZINC000179211660   -0.0700
      6 C6         -7.1923    2.8551   54.6263 C.ar    1  ZINC000179211660   -0.1700
      7 C7         -7.4807    2.6386   53.2913 C.ar    1  ZINC000179211660   -0.0700
      8 C8         -8.0319    1.4378   52.8884 C.ar    1  ZINC000179211660   -0.1500
      9 C9         -8.3455    1.2024   51.4334 C.3     1  ZINC000179211660    0.1800
     10 N10        -7.4809    2.0463   50.6047 N.am    1  ZINC000179211660   -0.6200
     11 C11        -8.0692    3.0757   49.7443 C.3     1  ZINC000179211660    0.0700
     12 C12        -6.1444    1.8755   50.6339 C.2     1  ZINC000179211660    0.7000
     13 O13        -5.6561    1.0200   51.3468 O.2     1  ZINC000179211660   -0.5300
     14 N14        -5.3489    2.6530   49.8728 N.am    1  ZINC000179211660   -0.6800
     15 C15        -3.9595    2.4755   49.9031 C.ar    1  ZINC000179211660    0.1900
     16 C16        -3.3616    1.5309   49.0812 C.ar    1  ZINC000179211660   -0.1400
     17 C17        -1.9890    1.3579   49.1127 C.ar    1  ZINC000179211660    0.1500
     18 F18        -1.4061    0.4384   48.3127 F       1  ZINC000179211660   -0.1100
     19 C19        -1.2122    2.1271   49.9634 C.ar    1  ZINC000179211660   -0.1300
     20 Br20        0.6633    1.8885   50.0034 Br      1  ZINC000179211660   -0.0100
     21 C21        -1.8062    3.0700   50.7836 C.ar    1  ZINC000179211660   -0.0700
     22 C22        -3.1767    3.2497   50.7526 C.ar    1  ZINC000179211660    0.0600
     23 F23        -3.7560    4.1706   51.5537 F       1  ZINC000179211660   -0.1300
     24 H24       -10.1919   -2.2419   53.8643 H       1  ZINC000179211660    0.1000
     25 H25        -9.3956   -1.4984   55.2720 H       1  ZINC000179211660    0.0500
     26 H26       -10.6749   -0.6160   54.4041 H       1  ZINC000179211660    0.0500
     27 H27        -8.2272   -0.0938   55.8962 H       1  ZINC000179211660    0.1300
     28 H28        -7.2346    2.0448   56.6039 H       1  ZINC000179211660    0.1200
     29 H29        -6.7573    3.7930   54.9386 H       1  ZINC000179211660    0.1200
     30 H30        -7.2707    3.4074   52.5623 H       1  ZINC000179211660    0.1300
     31 H31        -8.1720    0.1543   51.1894 H       1  ZINC000179211660    0.0900
     32 H32        -9.3889    1.4522   51.2414 H       1  ZINC000179211660    0.1000
     33 H33        -8.1450    4.0119   50.2976 H       1  ZINC000179211660    0.0600
     34 H34        -7.4375    3.2216   48.8682 H       1  ZINC000179211660    0.0600
     35 H35        -9.0631    2.7598   49.4271 H       1  ZINC000179211660    0.0800
     36 H36        -5.7383    3.3354   49.3041 H       1  ZINC000179211660    0.4100
     37 H37        -3.9668    0.9311   48.4178 H       1  ZINC000179211660    0.1800
     38 H38        -1.1983    3.6685   51.4459 H       1  ZINC000179211660    0.1600
@<TRIPOS>BOND
     1     1     2    1
     2     1    24    1
     3     1    25    1
     4     1    26    1
     5     2     3    1
     6     3     8   ar
     7     3     4   ar
     8     4     5   ar
     9     4    27    1
    10     5     6   ar
    11     5    28    1
    12     6     7   ar
    13     6    29    1
    14     7     8   ar
    15     7    30    1
    16     8     9    1
    17     9    10    1
    18     9    31    1
    19     9    32    1
    20    10    11    1
    21    10    12   am
    22    11    33    1
    23    11    34    1
    24    11    35    1
    25    12    13    2
    26    12    14   am
    27    14    15    1
    28    14    36    1
    29    15    22   ar
    30    15    16   ar
    31    16    17   ar
    32    16    37    1
    33    17    18    1
    34    17    19   ar
    35    19    20    1
    36    19    21   ar
    37    21    22   ar
    38    21    38    1
    39    22    23    1
@<TRIPOS>SUBSTRUCTURE
     1 ZINC000179211660        1 TEMP              0 ****  ****    0 ROOT


##########                                Name:    ZINC000375477402
##########                DOCK_Rotatable_Bonds:                   5
##########                         Heavy_Atoms:                  26
##########                    Molecular_Weight:             378.342
##########                DOCK_Rotatable_Bonds:                   5
##########                       Formal_Charge:         -1.2666e-07
##########                     HBond_Acceptors:                   9
##########                        HBond_Donors:                   1
##########                         Heavy_Atoms:                  26
##########                          Grid_Score:          -27.949280
##########                     Grid_vdw_energy:          -28.639135
##########                      Grid_es_energy:            0.689856
##########           Internal_energy_repulsive:           12.266527

@<TRIPOS>MOLECULE
ZINC000375477402
 45 47 1 0 0
SMALL
USER_CHARGES


@<TRIPOS>ATOM
      1 O1         -9.1083    0.2219   57.1875 O.2     1  ZINC000375477402   -0.5600
      2 C2         -9.8222   -0.4538   56.4717 C.2     1  ZINC000375477402    0.7200
      3 N3        -10.6981   -1.3200   57.0183 N.am    1  ZINC000375477402   -0.7300
      4 C4        -10.7860   -1.4517   58.4748 C.3     1  ZINC000375477402    0.1800
      5 H5        -10.4804   -0.5162   58.9434 H       1  ZINC000375477402    0.1500
      6 C6        -12.2064   -1.7689   58.8657 C.ar    1  ZINC000375477402   -0.1300
      7 C7        -12.7840   -1.1318   59.9479 C.ar    1  ZINC000375477402   -0.0800
      8 C8        -14.0870   -1.4216   60.3079 C.ar    1  ZINC000375477402   -0.0900
      9 C9        -14.8148   -2.3491   59.5864 C.ar    1  ZINC000375477402   -0.1100
     10 C10       -14.2393   -2.9887   58.5023 C.ar    1  ZINC000375477402    0.0800
     11 F11       -14.9501   -3.8953   57.7965 F       1  ZINC000375477402   -0.1200
     12 C12       -12.9345   -2.6938   58.1378 C.ar    1  ZINC000375477402    0.1000
     13 F13       -12.3706   -3.3169   57.0799 F       1  ZINC000375477402   -0.1100
     14 C14        -9.8645   -2.5805   58.9412 C.3     1  ZINC000375477402    0.4400
     15 F15       -10.2111   -2.9576   60.2430 F       1  ZINC000375477402   -0.1600
     16 F16       -10.0021   -3.6786   58.0853 F       1  ZINC000375477402   -0.1700
     17 F17        -8.5376   -2.1375   58.9217 F       1  ZINC000375477402   -0.1800
     18 N18        -9.7413   -0.3325   55.1319 N.am    1  ZINC000375477402   -0.6300
     19 C19       -10.5469   -1.0829   54.1504 C.3     1  ZINC000375477402    0.1000
     20 C20       -10.5518   -0.1972   52.8781 C.3     1  ZINC000375477402   -0.1200
     21 C21        -9.1240    0.3924   52.9068 C.3     1  ZINC000375477402   -0.1100
     22 C22        -8.8389    0.5754   54.4052 C.3     1  ZINC000375477402    0.1400
     23 C23        -8.1382   -0.5858   52.2801 C.3     1  ZINC000375477402   -0.1100
     24 C24        -6.7427    0.0488   52.2624 C.3     1  ZINC000375477402   -0.1600
     25 C25        -6.8128    1.3902   51.5276 C.3     1  ZINC000375477402    0.0600
     26 O26        -7.7563    2.2428   52.1799 O.3     1  ZINC000375477402   -0.3800
     27 C27        -9.0930    1.7339   52.1872 C.3     1  ZINC000375477402    0.0800
     28 H28       -11.2704   -1.8561   56.4474 H       1  ZINC000375477402    0.4000
     29 H29       -12.2167   -0.4071   60.5130 H       1  ZINC000375477402    0.1400
     30 H30       -14.5365   -0.9231   61.1539 H       1  ZINC000375477402    0.1500
     31 H31       -15.8325   -2.5749   59.8688 H       1  ZINC000375477402    0.1500
     32 H32       -10.0850   -2.0474   53.9391 H       1  ZINC000375477402    0.0700
     33 H33       -11.5629   -1.2210   54.5201 H       1  ZINC000375477402    0.0700
     34 H34       -10.7080   -0.7995   51.9831 H       1  ZINC000375477402    0.0900
     35 H35       -11.3014    0.5904   52.9530 H       1  ZINC000375477402    0.0800
     36 H36        -9.0295    1.6085   54.6958 H       1  ZINC000375477402    0.0800
     37 H37        -7.8036    0.3115   54.6210 H       1  ZINC000375477402    0.0700
     38 H38        -8.1134   -1.5041   52.8668 H       1  ZINC000375477402    0.0700
     39 H39        -8.4484   -0.8123   51.2601 H       1  ZINC000375477402    0.0700
     40 H40        -6.4028    0.2108   53.2853 H       1  ZINC000375477402    0.0700
     41 H41        -6.0476   -0.6136   51.7464 H       1  ZINC000375477402    0.0800
     42 H42        -5.8300    1.8614   51.5373 H       1  ZINC000375477402    0.1000
     43 H43        -7.1256    1.2238   50.4968 H       1  ZINC000375477402    0.0500
     44 H44        -9.4375    1.6035   51.1613 H       1  ZINC000375477402    0.0600
     45 H45        -9.7466    2.4375   52.7027 H       1  ZINC000375477402    0.1000
@<TRIPOS>BOND
     1     1     2    2
     2     2     3   am
     3     2    18   am
     4     3     4    1
     5     3    28    1
     6     4     5    1
     7     4     6    1
     8     4    14    1
     9     6    12   ar
    10     6     7   ar
    11     7     8   ar
    12     7    29    1
    13     8     9   ar
    14     8    30    1
    15     9    10   ar
    16     9    31    1
    17    10    11    1
    18    10    12   ar
    19    12    13    1
    20    14    15    1
    21    14    16    1
    22    14    17    1
    23    18    22    1
    24    18    19    1
    25    19    20    1
    26    19    32    1
    27    19    33    1
    28    20    21    1
    29    20    34    1
    30    20    35    1
    31    21    27    1
    32    21    22    1
    33    21    23    1
    34    22    36    1
    35    22    37    1
    36    23    24    1
    37    23    38    1
    38    23    39    1
    39    24    25    1
    40    24    40    1
    41    24    41    1
    42    25    26    1
    43    25    42    1
    44    25    43    1
    45    26    27    1
    46    27    44    1
    47    27    45    1
@<TRIPOS>SUBSTRUCTURE
     1 ZINC000375477402        1 TEMP              0 ****  ****    0 ROOT


##########                                Name:    ZINC001011676549
##########                DOCK_Rotatable_Bonds:                   6
##########                         Heavy_Atoms:                  24
##########                    Molecular_Weight:             330.387
##########                DOCK_Rotatable_Bonds:                   6
##########                       Formal_Charge:        -1.49012e-07
##########                     HBond_Acceptors:                   7
##########                        HBond_Donors:                   1
##########                         Heavy_Atoms:                  24
##########                          Grid_Score:          -27.938337
##########                     Grid_vdw_energy:          -28.207825
##########                      Grid_es_energy:            0.269487
##########           Internal_energy_repulsive:           15.488773

@<TRIPOS>MOLECULE
ZINC001011676549
 46 48 1 0 0
SMALL
USER_CHARGES


@<TRIPOS>ATOM
      1 C1         -7.8656    0.2173   53.7596 C.3     1  ZINC001011676549   -0.1700
      2 C2         -9.2744    0.8065   53.8546 C.3     1  ZINC001011676549    0.1300
      3 H3         -9.2403    1.7677   54.3674 H       1  ZINC001011676549    0.0900
      4 C4         -9.8643    0.9870   52.4401 C.3     1  ZINC001011676549    0.1400
      5 H5        -10.4817    1.8840   52.3912 H       1  ZINC001011676549    0.1100
      6 N6         -8.7982    1.0386   51.4366 N.am    1  ZINC001011676549   -0.7200
      7 C7         -8.5020    2.2038   50.8273 C.2     1  ZINC001011676549    0.5200
      8 O8         -9.1191    3.2093   51.1088 O.2     1  ZINC001011676549   -0.5300
      9 C9         -7.4041    2.2573   49.7964 C.3     1  ZINC001011676549   -0.0900
     10 C10        -6.0983    2.5921   50.4701 C.ar    1  ZINC001011676549   -0.1800
     11 C11        -4.8922    2.1843   49.9224 C.ar    1  ZINC001011676549    0.1600
     12 N12        -3.7655    2.4968   50.5422 N.ar    1  ZINC001011676549   -0.5200
     13 C13        -3.7815    3.1861   51.6653 C.ar    1  ZINC001011676549    0.3000
     14 N14        -4.9089    3.5905   52.2150 N.ar    1  ZINC001011676549   -0.5200
     15 C15        -6.0742    3.3202   51.6491 C.ar    1  ZINC001011676549    0.1600
     16 C16       -10.7317   -0.2868   52.2601 C.3     1  ZINC001011676549   -0.1400
     17 C17       -11.2725   -0.5003   53.6959 C.3     1  ZINC001011676549    0.1000
     18 N18       -10.1550   -0.1181   54.5835 N.am    1  ZINC001011676549   -0.6100
     19 C19        -9.9732   -0.5488   55.8476 C.2     1  ZINC001011676549    0.5800
     20 O20        -9.0127   -0.1666   56.4881 O.2     1  ZINC001011676549   -0.5300
     21 C21       -10.9368   -1.4814   56.4526 C.2     1  ZINC001011676549   -0.1400
     22 C22       -12.1432   -1.0409   56.7611 C.2     1  ZINC001011676549   -0.1500
     23 C23       -13.1887   -1.9184   57.3895 C.3     1  ZINC001011676549    0.0900
     24 O24       -12.8227   -3.2929   57.2528 O.3     1  ZINC001011676549   -0.3800
     25 C25       -11.4834   -3.5636   57.6836 C.3     1  ZINC001011676549    0.0600
     26 C26       -10.5165   -2.9054   56.6931 C.3     1  ZINC001011676549   -0.1100
     27 H27        -7.9090   -0.7490   53.2569 H       1  ZINC001011676549    0.0600
     28 H28        -7.2265    0.8937   53.1920 H       1  ZINC001011676549    0.0700
     29 H29        -7.4577    0.0875   54.7619 H       1  ZINC001011676549    0.0800
     30 H30        -8.3055    0.2343   51.2106 H       1  ZINC001011676549    0.4100
     31 H31        -7.3208    1.2884   49.3039 H       1  ZINC001011676549    0.1100
     32 H32        -7.6377    3.0224   49.0561 H       1  ZINC001011676549    0.1100
     33 H33        -4.8722    1.6188   49.0025 H       1  ZINC001011676549    0.1700
     34 H34        -2.8456    3.4258   52.1482 H       1  ZINC001011676549    0.2000
     35 H35        -6.9946    3.6549   52.1046 H       1  ZINC001011676549    0.1700
     36 H36       -11.5464   -0.1087   51.5582 H       1  ZINC001011676549    0.0900
     37 H37       -10.1223   -1.1328   51.9424 H       1  ZINC001011676549    0.0800
     38 H38       -12.1347    0.1419   53.8759 H       1  ZINC001011676549    0.0800
     39 H39       -11.5388   -1.5460   53.8494 H       1  ZINC001011676549    0.0800
     40 H40       -12.3877   -0.0095   56.5538 H       1  ZINC001011676549    0.1200
     41 H41       -13.2792   -1.6720   58.4474 H       1  ZINC001011676549    0.0700
     42 H42       -14.1464   -1.7487   56.8975 H       1  ZINC001011676549    0.1100
     43 H43       -11.3290   -3.1514   58.6807 H       1  ZINC001011676549    0.0600
     44 H44       -11.3141   -4.6403   57.6987 H       1  ZINC001011676549    0.1000
     45 H45       -10.5280   -3.4574   55.7533 H       1  ZINC001011676549    0.0900
     46 H46        -9.5085   -2.9166   57.1079 H       1  ZINC001011676549    0.0900
@<TRIPOS>BOND
     1     1     2    1
     2     1    27    1
     3     1    28    1
     4     1    29    1
     5     2     3    1
     6     2    18    1
     7     2     4    1
     8     4     5    1
     9     4     6    1
    10     4    16    1
    11     6     7   am
    12     6    30    1
    13     7     8    2
    14     7     9    1
    15     9    10    1
    16     9    31    1
    17     9    32    1
    18    10    15   ar
    19    10    11   ar
    20    11    12   ar
    21    11    33    1
    22    12    13   ar
    23    13    14   ar
    24    13    34    1
    25    14    15   ar
    26    15    35    1
    27    16    17    1
    28    16    36    1
    29    16    37    1
    30    17    18    1
    31    17    38    1
    32    17    39    1
    33    18    19   am
    34    19    20    2
    35    19    21    1
    36    21    26    1
    37    21    22    2
    38    22    23    1
    39    22    40    1
    40    23    24    1
    41    23    41    1
    42    23    42    1
    43    24    25    1
    44    25    26    1
    45    25    43    1
    46    25    44    1
    47    26    45    1
    48    26    46    1
@<TRIPOS>SUBSTRUCTURE
     1 ZINC001011676549        1 TEMP              0 ****  ****    0 ROOT


##########                                Name:    ZINC000587344575
##########                DOCK_Rotatable_Bonds:                   7
##########                         Heavy_Atoms:                  30
##########                    Molecular_Weight:             408.475
##########                DOCK_Rotatable_Bonds:                   7
##########                       Formal_Charge:          -0.0100002
##########                     HBond_Acceptors:                   7
##########                        HBond_Donors:                   2
##########                         Heavy_Atoms:                  30
##########                          Grid_Score:          -27.911591
##########                     Grid_vdw_energy:          -27.226307
##########                      Grid_es_energy:           -0.685283
##########           Internal_energy_repulsive:           19.440845

@<TRIPOS>MOLECULE
ZINC000587344575
 55 57 1 0 0
SMALL
USER_CHARGES


@<TRIPOS>ATOM
      1 C1         -7.4424    3.5361   54.1851 C.3     1  ZINC000587344575   -0.1200
      2 C2         -7.9766    2.2352   54.7269 C.ar    1  ZINC000587344575    0.0000
      3 C3         -8.3122    2.1289   56.0576 C.ar    1  ZINC000587344575   -0.1600
      4 C4         -8.8059    0.9283   56.5585 C.ar    1  ZINC000587344575    0.1800
      5 N5         -9.1454    0.8243   57.9070 N.am    1  ZINC000587344575   -0.6700
      6 C6         -8.2017    0.9926   58.8543 C.2     1  ZINC000587344575    0.5200
      7 O7         -7.0572    1.2345   58.5340 O.2     1  ZINC000587344575   -0.5000
      8 C8         -8.5685    0.8802   60.3117 C.3     1  ZINC000587344575   -0.1200
      9 H9         -7.8516    1.4262   60.9248 H       1  ZINC000587344575    0.1100
     10 C10        -8.6188   -0.6046   60.7392 C.3     1  ZINC000587344575   -0.1200
     11 C11        -9.8428   -0.6507   61.6881 C.3     1  ZINC000587344575    0.0400
     12 N12       -10.8038    0.2842   61.0488 N.3     1  ZINC000587344575   -0.4800
     13 C13       -11.7589    0.7217   61.9641 C.ar    1  ZINC000587344575    0.0700
     14 C14       -11.3581    1.3513   63.1374 C.ar    1  ZINC000587344575   -0.1200
     15 C15       -12.2992    1.7848   64.0449 C.ar    1  ZINC000587344575   -0.0700
     16 C16       -13.6590    1.5922   63.7861 C.ar    1  ZINC000587344575    0.0000
     17 C17       -14.6393    2.0425   64.7279 C.1     1  ZINC000587344575    0.2500
     18 N18       -15.4171    2.3995   65.4749 N.1     1  ZINC000587344575   -0.4000
     19 C19       -14.0603    0.9591   62.6054 C.ar    1  ZINC000587344575   -0.1000
     20 C20       -13.1140    0.5324   61.6991 C.ar    1  ZINC000587344575    0.1300
     21 F21       -13.4998   -0.0788   60.5577 F       1  ZINC000587344575   -0.1200
     22 C22        -9.9922    1.4174   60.5476 C.3     1  ZINC000587344575    0.0500
     23 C23        -8.9622   -0.1683   55.7169 C.ar    1  ZINC000587344575   -0.1400
     24 C24        -8.6284   -0.0689   54.3848 C.ar    1  ZINC000587344575   -0.0600
     25 C25        -8.1373    1.1370   53.8774 C.ar    1  ZINC000587344575   -0.1600
     26 C26        -7.7790    1.2474   52.4498 C.2     1  ZINC000587344575    0.5600
     27 O27        -7.0952    0.3890   51.9266 O.2     1  ZINC000587344575   -0.5300
     28 N28        -8.2097    2.2998   51.7264 N.am    1  ZINC000587344575   -0.7200
     29 C29        -7.8525    2.4102   50.3099 C.3     1  ZINC000587344575    0.1400
     30 C30        -8.7067    3.4955   49.6516 C.3     1  ZINC000587344575   -0.1600
     31 C31        -6.3730    2.7796   50.1843 C.3     1  ZINC000587344575   -0.1600
     32 H32        -8.2560    4.1023   53.7318 H       1  ZINC000587344575    0.0800
     33 H33        -7.0050    4.1158   54.9979 H       1  ZINC000587344575    0.0600
     34 H34        -6.6797    3.3309   53.4339 H       1  ZINC000587344575    0.1000
     35 H35        -8.1918    2.9784   56.7137 H       1  ZINC000587344575    0.1300
     36 H36       -10.0607    0.6308   58.1631 H       1  ZINC000587344575    0.4100
     37 H37        -8.7763   -1.2499   59.8749 H       1  ZINC000587344575    0.0900
     38 H38        -7.7087   -0.8843   61.2698 H       1  ZINC000587344575    0.0900
     39 H39       -10.2575   -1.6578   61.7326 H       1  ZINC000587344575    0.0900
     40 H40        -9.5707   -0.3012   62.6841 H       1  ZINC000587344575    0.0600
     41 H41       -10.3073    1.5003   63.3376 H       1  ZINC000587344575    0.1400
     42 H42       -11.9864    2.2730   64.9561 H       1  ZINC000587344575    0.1400
     43 H43       -15.1103    0.8088   62.4023 H       1  ZINC000587344575    0.1500
     44 H44        -9.9719    2.2162   61.2890 H       1  ZINC000587344575    0.0600
     45 H45       -10.4093    1.7872   59.6109 H       1  ZINC000587344575    0.1100
     46 H46        -9.3453   -1.0989   56.1090 H       1  ZINC000587344575    0.1400
     47 H47        -8.7499   -0.9206   53.7320 H       1  ZINC000587344575    0.1300
     48 H48        -8.7561    2.9840   52.1435 H       1  ZINC000587344575    0.4000
     49 H49        -8.0320    1.4561   49.8144 H       1  ZINC000587344575    0.0900
     50 H50        -8.5271    4.4496   50.1471 H       1  ZINC000587344575    0.0600
     51 H51        -8.4410    3.5776   48.5977 H       1  ZINC000587344575    0.0700
     52 H52        -9.7607    3.2324   49.7411 H       1  ZINC000587344575    0.0600
     53 H53        -6.1934    3.7337   50.6798 H       1  ZINC000587344575    0.0600
     54 H54        -5.7644    2.0065   50.6533 H       1  ZINC000587344575    0.0600
     55 H55        -6.1072    2.8617   49.1304 H       1  ZINC000587344575    0.0700
@<TRIPOS>BOND
     1     1     2    1
     2     1    32    1
     3     1    33    1
     4     1    34    1
     5     2    25   ar
     6     2     3   ar
     7     3     4   ar
     8     3    35    1
     9     4     5    1
    10     4    23   ar
    11     5     6   am
    12     5    36    1
    13     6     7    2
    14     6     8    1
    15     8     9    1
    16     8    22    1
    17     8    10    1
    18    10    11    1
    19    10    37    1
    20    10    38    1
    21    11    12    1
    22    11    39    1
    23    11    40    1
    24    12    13    1
    25    12    22    1
    26    13    20   ar
    27    13    14   ar
    28    14    15   ar
    29    14    41    1
    30    15    16   ar
    31    15    42    1
    32    16    17    1
    33    16    19   ar
    34    17    18    3
    35    19    20   ar
    36    19    43    1
    37    20    21    1
    38    22    44    1
    39    22    45    1
    40    23    24   ar
    41    23    46    1
    42    24    25   ar
    43    24    47    1
    44    25    26    1
    45    26    27    2
    46    26    28   am
    47    28    29    1
    48    28    48    1
    49    29    30    1
    50    29    31    1
    51    29    49    1
    52    30    50    1
    53    30    51    1
    54    30    52    1
    55    31    53    1
    56    31    54    1
    57    31    55    1
@<TRIPOS>SUBSTRUCTURE
     1 ZINC000587344575        1 TEMP              0 ****  ****    0 ROOT


##########                                Name:    ZINC000469391664
##########                DOCK_Rotatable_Bonds:                   6
##########                         Heavy_Atoms:                  29
##########                    Molecular_Weight:             408.524
##########                DOCK_Rotatable_Bonds:                   6
##########                       Formal_Charge:         -0.00999999
##########                     HBond_Acceptors:                   7
##########                        HBond_Donors:                   0
##########                         Heavy_Atoms:                  29
##########                          Grid_Score:          -27.910137
##########                     Grid_vdw_energy:          -27.988941
##########                      Grid_es_energy:            0.078804
##########           Internal_energy_repulsive:           47.981365

@<TRIPOS>MOLECULE
ZINC000469391664
 53 56 1 0 0
SMALL
USER_CHARGES


@<TRIPOS>ATOM
      1 C1         -8.4818    3.4425   50.7554 C.3     1  ZINC000469391664   -0.1500
      2 C2         -8.4104    2.0698   51.4274 C.3     1  ZINC000469391664   -0.1000
      3 H3         -8.2411    1.3036   50.6709 H       1  ZINC000469391664    0.0800
      4 C4         -9.7283    1.7881   52.1526 C.3     1  ZINC000469391664   -0.1300
      5 C5         -9.6660    0.3988   52.7950 C.3     1  ZINC000469391664    0.1100
      6 N6         -8.4768    0.3282   53.6551 N.am    1  ZINC000469391664   -0.6100
      7 C7         -8.5844   -0.0418   54.9466 C.2     1  ZINC000469391664    0.5600
      8 O8         -7.5926   -0.0962   55.6481 O.2     1  ZINC000469391664   -0.5000
      9 C9         -9.9051   -0.3805   55.5091 C.ar    1  ZINC000469391664   -0.1100
     10 C10       -10.5064   -1.6034   55.2032 C.ar    1  ZINC000469391664   -0.0900
     11 C11       -11.7405   -1.9142   55.7325 C.ar    1  ZINC000469391664   -0.1000
     12 C12       -12.3896   -1.0190   56.5671 C.ar    1  ZINC000469391664   -0.0900
     13 C13       -11.8082    0.1938   56.8782 C.ar    1  ZINC000469391664   -0.1000
     14 C14       -10.5627    0.5216   56.3594 C.ar    1  ZINC000469391664    0.1500
     15 N15        -9.9747    1.7438   56.6717 N.am    1  ZINC000469391664   -0.5800
     16 C16       -10.2191    2.9125   55.8229 C.3     1  ZINC000469391664    0.0900
     17 C17        -9.1802    1.8521   57.7551 C.2     1  ZINC000469391664    0.6100
     18 O18        -8.6660    2.9208   58.0282 O.2     1  ZINC000469391664   -0.5200
     19 C19        -8.9356    0.6831   58.6040 C.2     1  ZINC000469391664   -0.2600
     20 C20        -8.1130    0.6538   59.6953 C.2     1  ZINC000469391664   -0.0500
     21 C21        -8.0687   -0.5751   60.3096 C.2     1  ZINC000469391664   -0.1500
     22 C22        -8.8275   -1.5207   59.7432 C.2     1  ZINC000469391664   -0.2600
     23 S23        -9.6590   -0.9047   58.3867 S.3     1  ZINC000469391664    0.2300
     24 C24        -7.1682    0.6683   53.0803 C.3     1  ZINC000469391664    0.1000
     25 C25        -7.2586    2.0548   52.4350 C.3     1  ZINC000469391664    0.1300
     26 H26        -7.4394    2.8038   53.2059 H       1  ZINC000469391664    0.1000
     27 N27        -6.0015    2.3562   51.7456 N.pl3   1  ZINC000469391664   -0.4500
     28 C28        -5.2380    3.4812   51.9037 C.2     1  ZINC000469391664   -0.0500
     29 C29        -4.1762    3.3495   51.0859 C.2     1  ZINC000469391664   -0.0300
     30 N30        -4.2883    2.1762   50.4459 N.2     1  ZINC000469391664   -0.4900
     31 C31        -5.3767    1.5733   50.8398 C.2     1  ZINC000469391664    0.1800
     32 H32        -7.5434    3.6432   50.2383 H       1  ZINC000469391664    0.0600
     33 H33        -9.3018    3.4533   50.0373 H       1  ZINC000469391664    0.0600
     34 H34        -8.6510    4.2089   51.5117 H       1  ZINC000469391664    0.0600
     35 H35        -9.8857    2.5397   52.9261 H       1  ZINC000469391664    0.0700
     36 H36       -10.5510    1.8221   51.4386 H       1  ZINC000469391664    0.0900
     37 H37       -10.5610    0.2330   53.3947 H       1  ZINC000469391664    0.1000
     38 H38        -9.5994   -0.3612   52.0165 H       1  ZINC000469391664    0.0800
     39 H39       -10.0050   -2.3044   54.5526 H       1  ZINC000469391664    0.1400
     40 H40       -12.2040   -2.8603   55.4950 H       1  ZINC000469391664    0.1400
     41 H41       -13.3565   -1.2715   56.9766 H       1  ZINC000469391664    0.1400
     42 H42       -12.3207    0.8865   57.5292 H       1  ZINC000469391664    0.1400
     43 H43       -11.0400    3.4975   56.2377 H       1  ZINC000469391664    0.0600
     44 H44        -9.3195    3.5267   55.7822 H       1  ZINC000469391664    0.0900
     45 H45       -10.4798    2.5829   54.8172 H       1  ZINC000469391664    0.0700
     46 H46        -7.5534    1.5107   60.0403 H       1  ZINC000469391664    0.1500
     47 H47        -7.4653   -0.7637   61.1853 H       1  ZINC000469391664    0.1400
     48 H48        -8.9062   -2.5372   60.0997 H       1  ZINC000469391664    0.1600
     49 H49        -6.4150    0.6805   53.8681 H       1  ZINC000469391664    0.1000
     50 H50        -6.8978   -0.0696   52.3250 H       1  ZINC000469391664    0.0800
     51 H51        -5.4472    4.3145   52.5581 H       1  ZINC000469391664    0.1700
     52 H52        -3.3748    4.0637   50.9663 H       1  ZINC000469391664    0.1700
     53 H53        -5.7237    0.6109   50.4937 H       1  ZINC000469391664    0.2000
@<TRIPOS>BOND
     1     1     2    1
     2     1    32    1
     3     1    33    1
     4     1    34    1
     5     2     3    1
     6     2    25    1
     7     2     4    1
     8     4     5    1
     9     4    35    1
    10     4    36    1
    11     5     6    1
    12     5    37    1
    13     5    38    1
    14     6     7   am
    15     6    24    1
    16     7     8    2
    17     7     9    1
    18     9    14   ar
    19     9    10   ar
    20    10    11   ar
    21    10    39    1
    22    11    12   ar
    23    11    40    1
    24    12    13   ar
    25    12    41    1
    26    13    14   ar
    27    13    42    1
    28    14    15    1
    29    15    16    1
    30    15    17   am
    31    16    43    1
    32    16    44    1
    33    16    45    1
    34    17    18    2
    35    17    19    1
    36    19    23    1
    37    19    20    2
    38    20    21    1
    39    20    46    1
    40    21    22    2
    41    21    47    1
    42    22    23    1
    43    22    48    1
    44    24    25    1
    45    24    49    1
    46    24    50    1
    47    25    26    1
    48    25    27    1
    49    27    31    1
    50    27    28    1
    51    28    29    2
    52    28    51    1
    53    29    30    1
    54    29    52    1
    55    30    31    2
    56    31    53    1
@<TRIPOS>SUBSTRUCTURE
     1 ZINC000469391664        1 TEMP              0 ****  ****    0 ROOT


##########                                Name:    ZINC000062882109
##########                DOCK_Rotatable_Bonds:                   8
##########                         Heavy_Atoms:                  31
##########                    Molecular_Weight:             424.497
##########                DOCK_Rotatable_Bonds:                   8
##########                       Formal_Charge:           0.0299993
##########                     HBond_Acceptors:                   7
##########                        HBond_Donors:                   1
##########                         Heavy_Atoms:                  31
##########                          Grid_Score:          -27.885996
##########                     Grid_vdw_energy:          -28.004078
##########                      Grid_es_energy:            0.118082
##########           Internal_energy_repulsive:          196.577988

@<TRIPOS>MOLECULE
ZINC000062882109
 59 61 1 0 0
SMALL
USER_CHARGES


@<TRIPOS>ATOM
      1 C1         -4.9105    5.4150   51.9177 C.3     1  ZINC000062882109   -0.2000
      2 C2         -4.8647    4.0927   51.1961 C.2     1  ZINC000062882109    0.3900
      3 O3         -3.8401    3.7309   50.6580 O.2     1  ZINC000062882109   -0.4500
      4 C4         -6.0637    3.2405   51.1446 C.ar    1  ZINC000062882109   -0.1300
      5 C5         -6.0241    2.0125   50.4768 C.ar    1  ZINC000062882109   -0.1100
      6 C6         -7.1502    1.2173   50.4311 C.ar    1  ZINC000062882109   -0.0900
      7 C7         -8.3194    1.6298   51.0437 C.ar    1  ZINC000062882109   -0.1800
      8 C8         -8.3695    2.8478   51.7094 C.ar    1  ZINC000062882109    0.1200
      9 O9         -9.5221    3.2469   52.3092 O.3     1  ZINC000062882109   -0.2800
     10 C10       -10.5678    2.2786   52.4139 C.3     1  ZINC000062882109    0.0700
     11 H11       -10.7259    1.8081   51.4435 H       1  ZINC000062882109    0.1000
     12 C12       -11.8579    2.9679   52.8627 C.3     1  ZINC000062882109   -0.1800
     13 C13       -10.1814    1.2292   53.4241 C.2     1  ZINC000062882109    0.5200
     14 O14        -9.0287    0.8607   53.5051 O.2     1  ZINC000062882109   -0.4900
     15 N15       -11.1168    0.7001   54.2375 N.am    1  ZINC000062882109   -0.6600
     16 C16       -10.7576   -0.2755   55.1767 C.ar    1  ZINC000062882109    0.1400
     17 C17       -10.5475   -1.5865   54.7713 C.ar    1  ZINC000062882109   -0.1000
     18 C18       -10.1948   -2.5520   55.6947 C.ar    1  ZINC000062882109   -0.1100
     19 C19       -10.0491   -2.2161   57.0323 C.ar    1  ZINC000062882109    0.0800
     20 O20        -9.7102   -3.1771   57.9328 O.3     1  ZINC000062882109   -0.3100
     21 C21        -9.1472   -2.7548   59.1772 C.3     1  ZINC000062882109    0.0500
     22 C22       -10.0354   -1.6538   59.7739 C.3     1  ZINC000062882109    0.0400
     23 N23       -10.1039   -0.5570   58.7933 N.am    1  ZINC000062882109   -0.5500
     24 C24       -10.0229    0.7313   59.1811 C.2     1  ZINC000062882109    0.5300
     25 O25       -10.0819    1.6180   58.3557 O.2     1  ZINC000062882109   -0.5100
     26 C26        -9.8592    1.0699   60.6405 C.3     1  ZINC000062882109   -0.0800
     27 C27        -9.9570    2.5854   60.8265 C.3     1  ZINC000062882109   -0.1300
     28 C28       -10.9619    0.3845   61.4499 C.3     1  ZINC000062882109   -0.1600
     29 C29        -8.4924    0.5835   61.1266 C.3     1  ZINC000062882109   -0.1500
     30 C30       -10.2563   -0.9002   57.4389 C.ar    1  ZINC000062882109    0.1000
     31 C31       -10.6059    0.0687   56.5134 C.ar    1  ZINC000062882109   -0.1400
     32 C32        -7.2451    3.6525   51.7680 C.ar    1  ZINC000062882109   -0.0900
     33 H33        -3.9369    5.9002   51.8491 H       1  ZINC000062882109    0.0900
     34 H34        -5.6672    6.0525   51.4604 H       1  ZINC000062882109    0.1000
     35 H35        -5.1605    5.2486   52.9655 H       1  ZINC000062882109    0.1000
     36 H36        -5.1130    1.6873   49.9968 H       1  ZINC000062882109    0.1400
     37 H37        -7.1189    0.2693   49.9148 H       1  ZINC000062882109    0.1300
     38 H38        -9.1974    1.0022   51.0042 H       1  ZINC000062882109    0.1300
     39 H39       -12.1374    3.7270   52.1320 H       1  ZINC000062882109    0.0800
     40 H40       -12.6557    2.2293   52.9425 H       1  ZINC000062882109    0.0800
     41 H41       -11.6999    3.4384   53.8330 H       1  ZINC000062882109    0.0800
     42 H42       -12.0386    0.9949   54.1727 H       1  ZINC000062882109    0.4100
     43 H43       -10.6602   -1.8527   53.7307 H       1  ZINC000062882109    0.1400
     44 H44       -10.0328   -3.5705   55.3743 H       1  ZINC000062882109    0.1400
     45 H45        -9.1026   -3.6003   59.8635 H       1  ZINC000062882109    0.1300
     46 H46        -8.1435   -2.3641   59.0101 H       1  ZINC000062882109    0.0700
     47 H47       -11.0351   -2.0458   59.9610 H       1  ZINC000062882109    0.0900
     48 H48        -9.5994   -1.2910   60.7048 H       1  ZINC000062882109    0.1300
     49 H49       -10.9307    2.9319   60.4802 H       1  ZINC000062882109    0.0600
     50 H50        -9.8386    2.8302   61.8820 H       1  ZINC000062882109    0.0700
     51 H51        -9.1713    3.0736   60.2499 H       1  ZINC000062882109    0.0700
     52 H52       -10.8922   -0.6951   61.3174 H       1  ZINC000062882109    0.0700
     53 H53       -10.8435    0.6294   62.5054 H       1  ZINC000062882109    0.0800
     54 H54       -11.9355    0.7310   61.1036 H       1  ZINC000062882109    0.0600
     55 H55        -7.7101    1.2085   60.6960 H       1  ZINC000062882109    0.0700
     56 H56        -8.4502    0.6462   62.2140 H       1  ZINC000062882109    0.0800
     57 H57        -8.3434   -0.4507   60.8163 H       1  ZINC000062882109    0.0700
     58 H58       -10.7647    1.0887   56.8311 H       1  ZINC000062882109    0.1800
     59 H59        -7.2830    4.5996   52.2857 H       1  ZINC000062882109    0.1400
@<TRIPOS>BOND
     1     1     2    1
     2     1    33    1
     3     1    34    1
     4     1    35    1
     5     2     3    2
     6     2     4    1
     7     4    32   ar
     8     4     5   ar
     9     5     6   ar
    10     5    36    1
    11     6     7   ar
    12     6    37    1
    13     7     8   ar
    14     7    38    1
    15     8     9    1
    16     8    32   ar
    17     9    10    1
    18    10    11    1
    19    10    12    1
    20    10    13    1
    21    12    39    1
    22    12    40    1
    23    12    41    1
    24    13    14    2
    25    13    15   am
    26    15    16    1
    27    15    42    1
    28    16    31   ar
    29    16    17   ar
    30    17    18   ar
    31    17    43    1
    32    18    19   ar
    33    18    44    1
    34    19    30   ar
    35    19    20    1
    36    20    21    1
    37    21    22    1
    38    21    45    1
    39    21    46    1
    40    22    23    1
    41    22    47    1
    42    22    48    1
    43    23    24   am
    44    23    30    1
    45    24    25    2
    46    24    26    1
    47    26    27    1
    48    26    28    1
    49    26    29    1
    50    27    49    1
    51    27    50    1
    52    27    51    1
    53    28    52    1
    54    28    53    1
    55    28    54    1
    56    29    55    1
    57    29    56    1
    58    29    57    1
    59    30    31   ar
    60    31    58    1
    61    32    59    1
@<TRIPOS>SUBSTRUCTURE
     1 ZINC000062882109        1 TEMP              0 ****  ****    0 ROOT


##########                                Name:    ZINC000001174632
##########                DOCK_Rotatable_Bonds:                   6
##########                         Heavy_Atoms:                  29
##########                    Molecular_Weight:             385.419
##########                DOCK_Rotatable_Bonds:                   6
##########                       Formal_Charge:           0.0400005
##########                     HBond_Acceptors:                   5
##########                        HBond_Donors:                   1
##########                         Heavy_Atoms:                  29
##########                          Grid_Score:          -27.871967
##########                     Grid_vdw_energy:          -26.245989
##########                      Grid_es_energy:           -1.625979
##########           Internal_energy_repulsive:           14.291198

@<TRIPOS>MOLECULE
ZINC000001174632
 48 51 1 0 0
SMALL
USER_CHARGES


@<TRIPOS>ATOM
      1 C1         -8.5011   -0.5440   61.7420 C.3     1  ZINC000001174632    0.0400
      2 O2         -8.8486    0.6377   60.9733 O.3     1  ZINC000001174632   -0.3500
      3 C3         -8.6693    0.5743   59.6391 C.2     1  ZINC000001174632    0.5200
      4 O4         -8.0423   -0.3463   59.1535 O.2     1  ZINC000001174632   -0.5200
      5 C5         -9.2338    1.6214   58.7694 C.ar    1  ZINC000001174632   -0.2000
      6 C6         -9.5886    2.8626   59.3030 C.ar    1  ZINC000001174632   -0.0200
      7 C7        -10.1156    3.8379   58.4839 C.ar    1  ZINC000001174632   -0.1800
      8 C8        -10.2960    3.5947   57.1318 C.ar    1  ZINC000001174632   -0.0300
      9 C9         -9.9509    2.3735   56.5891 C.ar    1  ZINC000001174632   -0.1900
     10 C10        -9.4129    1.3797   57.3973 C.ar    1  ZINC000001174632    0.2600
     11 N11        -9.0645    0.1502   56.8537 N.pl3   1  ZINC000001174632   -0.6500
     12 C12        -9.3032   -0.1057   55.5279 C.2     1  ZINC000001174632    0.2300
     13 C13       -10.3442   -0.8688   55.0349 C.2     1  ZINC000001174632   -0.1800
     14 C14       -11.3830   -1.5434   55.8445 C.ar    1  ZINC000001174632   -0.0600
     15 C15       -11.1912   -2.8573   56.2745 C.ar    1  ZINC000001174632   -0.0600
     16 C16       -12.1619   -3.4825   57.0288 C.ar    1  ZINC000001174632   -0.1500
     17 C17       -13.3285   -2.8071   57.3600 C.ar    1  ZINC000001174632    0.1400
     18 O18       -14.2829   -3.4270   58.1038 O.3     1  ZINC000001174632   -0.3200
     19 C19       -14.9883   -4.5052   57.4856 C.3     1  ZINC000001174632    0.0300
     20 C20       -13.5231   -1.5002   56.9343 C.ar    1  ZINC000001174632   -0.2100
     21 C21       -12.5547   -0.8657   56.1849 C.ar    1  ZINC000001174632   -0.0500
     22 C22       -10.2438   -0.8953   53.5702 C.2     1  ZINC000001174632    0.4500
     23 O23       -10.9921   -1.4707   52.8044 O.2     1  ZINC000001174632   -0.4100
     24 C24        -9.0516   -0.0833   53.2008 C.ar    1  ZINC000001174632   -0.1600
     25 C25        -8.4760    0.2397   51.9864 C.ar    1  ZINC000001174632   -0.0500
     26 C26        -7.3360    1.0366   51.9495 C.ar    1  ZINC000001174632   -0.1100
     27 C27        -6.7785    1.5047   53.1196 C.ar    1  ZINC000001174632   -0.0900
     28 C28        -7.3488    1.1863   54.3464 C.ar    1  ZINC000001174632   -0.0800
     29 C29        -8.4891    0.3979   54.3962 C.ar    1  ZINC000001174632   -0.0600
     30 H30        -7.4450   -0.7730   61.5990 H       1  ZINC000001174632    0.0700
     31 H31        -8.6928   -0.3594   62.7990 H       1  ZINC000001174632    0.1100
     32 H32        -9.1045   -1.3871   61.4052 H       1  ZINC000001174632    0.0700
     33 H33        -9.4506    3.0577   60.3562 H       1  ZINC000001174632    0.1400
     34 H34       -10.3897    4.7969   58.8984 H       1  ZINC000001174632    0.1300
     35 H35       -10.7097    4.3655   56.4986 H       1  ZINC000001174632    0.1300
     36 H36       -10.0954    2.1915   55.5344 H       1  ZINC000001174632    0.1300
     37 H37        -8.6521   -0.5275   57.4118 H       1  ZINC000001174632    0.4300
     38 H38       -10.2841   -3.3837   56.0167 H       1  ZINC000001174632    0.1300
     39 H39       -12.0142   -4.4991   57.3620 H       1  ZINC000001174632    0.1300
     40 H40       -15.5012   -4.1409   56.5956 H       1  ZINC000001174632    0.0600
     41 H41       -14.2827   -5.2869   57.2040 H       1  ZINC000001174632    0.0600
     42 H42       -15.7188   -4.9102   58.1859 H       1  ZINC000001174632    0.1000
     43 H43       -14.4323   -0.9783   57.1937 H       1  ZINC000001174632    0.1300
     44 H44       -12.7066    0.1511   55.8543 H       1  ZINC000001174632    0.1300
     45 H45        -8.9101   -0.1262   51.0677 H       1  ZINC000001174632    0.1400
     46 H46        -6.8862    1.2889   51.0006 H       1  ZINC000001174632    0.1400
     47 H47        -5.8932    2.1221   53.0831 H       1  ZINC000001174632    0.1400
     48 H48        -6.9073    1.5562   55.2600 H       1  ZINC000001174632    0.1300
@<TRIPOS>BOND
     1     1     2    1
     2     1    30    1
     3     1    31    1
     4     1    32    1
     5     2     3    1
     6     3     4    2
     7     3     5    1
     8     5    10   ar
     9     5     6   ar
    10     6     7   ar
    11     6    33    1
    12     7     8   ar
    13     7    34    1
    14     8     9   ar
    15     8    35    1
    16     9    10   ar
    17     9    36    1
    18    10    11    1
    19    11    12    1
    20    11    37    1
    21    12    29    1
    22    12    13    2
    23    13    14    1
    24    13    22    1
    25    14    21   ar
    26    14    15   ar
    27    15    16   ar
    28    15    38    1
    29    16    17   ar
    30    16    39    1
    31    17    18    1
    32    17    20   ar
    33    18    19    1
    34    19    40    1
    35    19    41    1
    36    19    42    1
    37    20    21   ar
    38    20    43    1
    39    21    44    1
    40    22    23    2
    41    22    24    1
    42    24    29   ar
    43    24    25   ar
    44    25    26   ar
    45    25    45    1
    46    26    27   ar
    47    26    46    1
    48    27    28   ar
    49    27    47    1
    50    28    29   ar
    51    28    48    1
@<TRIPOS>SUBSTRUCTURE
     1 ZINC000001174632        1 TEMP              0 ****  ****    0 ROOT


##########                                Name:    ZINC000015179664
##########                DOCK_Rotatable_Bonds:                   8
##########                         Heavy_Atoms:                  25
##########                    Molecular_Weight:             361.422
##########                DOCK_Rotatable_Bonds:                   8
##########                       Formal_Charge:        -2.23517e-07
##########                     HBond_Acceptors:                   8
##########                        HBond_Donors:                   1
##########                         Heavy_Atoms:                  25
##########                          Grid_Score:          -27.864742
##########                     Grid_vdw_energy:          -27.831764
##########                      Grid_es_energy:           -0.032978
##########           Internal_energy_repulsive:           23.723530

@<TRIPOS>MOLECULE
ZINC000015179664
 44 45 1 0 0
SMALL
USER_CHARGES


@<TRIPOS>ATOM
      1 C1         -7.4170    2.2980   49.5653 C.3     1  ZINC000015179664   -0.1600
      2 C2         -7.0267    2.6212   51.0089 C.3     1  ZINC000015179664    0.1800
      3 H3         -7.5681    3.5065   51.3422 H       1  ZINC000015179664    0.1200
      4 C4         -5.5441    2.8817   51.0821 C.ar    1  ZINC000015179664   -0.1000
      5 C5         -5.0568    3.8720   51.9139 C.ar    1  ZINC000015179664   -0.0700
      6 C6         -3.6966    4.1109   51.9811 C.ar    1  ZINC000015179664   -0.1200
      7 C7         -2.8243    3.3591   51.2167 C.ar    1  ZINC000015179664   -0.0500
      8 C8         -3.3118    2.3678   50.3855 C.ar    1  ZINC000015179664   -0.0400
      9 N9         -2.3777    1.5629   49.5666 N.pl3   1  ZINC000015179664    0.0300
     10 O10        -1.1796    1.7740   49.6251 O.2     1  ZINC000015179664   -0.1600
     11 O11        -2.8072    0.6896   48.8342 O.2     1  ZINC000015179664   -0.1500
     12 C12        -4.6712    2.1260   50.3215 C.ar    1  ZINC000015179664   -0.0400
     13 N13        -7.3664    1.4872   51.8721 N.am    1  ZINC000015179664   -0.6100
     14 C14        -6.4504    0.3490   51.9807 C.3     1  ZINC000015179664    0.0600
     15 C15        -8.5215    1.4912   52.5664 C.2     1  ZINC000015179664    0.5200
     16 O16        -8.8034    0.5519   53.2800 O.2     1  ZINC000015179664   -0.5200
     17 C17        -9.4629    2.6629   52.4562 C.3     1  ZINC000015179664   -0.1500
     18 C18       -10.7181    2.3885   53.2868 C.3     1  ZINC000015179664    0.1300
     19 N19       -11.6858    1.6432   52.4778 N.am    1  ZINC000015179664   -0.7300
     20 C20       -12.7022    2.2917   51.8757 C.2     1  ZINC000015179664    0.5800
     21 O21       -12.8171    3.4957   52.0051 O.2     1  ZINC000015179664   -0.5300
     22 C22       -13.6734    1.5430   51.0615 C.2     1  ZINC000015179664   -0.1500
     23 C23       -13.5733    0.2097   50.8125 C.2     1  ZINC000015179664   -0.2200
     24 S24       -14.8665   -0.3233   49.8385 S.3     1  ZINC000015179664    0.1900
     25 C25       -15.5672    1.2838   49.7581 C.2     1  ZINC000015179664   -0.2300
     26 C26       -14.8338    2.1477   50.4500 C.2     1  ZINC000015179664   -0.0900
     27 H27        -7.1642    3.1416   48.9230 H       1  ZINC000015179664    0.0800
     28 H28        -6.8755    1.4126   49.2319 H       1  ZINC000015179664    0.0600
     29 H29        -8.4893    2.1095   49.5123 H       1  ZINC000015179664    0.0700
     30 H30        -5.7383    4.4595   52.5111 H       1  ZINC000015179664    0.1500
     31 H31        -3.3158    4.8853   52.6304 H       1  ZINC000015179664    0.1500
     32 H32        -1.7619    3.5462   51.2687 H       1  ZINC000015179664    0.1600
     33 H33        -5.0521    1.3517   49.6722 H       1  ZINC000015179664    0.1600
     34 H34        -5.7218    0.5428   52.7678 H       1  ZINC000015179664    0.0600
     35 H35        -7.0161   -0.5507   52.2227 H       1  ZINC000015179664    0.0800
     36 H36        -5.9319    0.2081   51.0323 H       1  ZINC000015179664    0.0800
     37 H37        -8.9701    3.5611   52.8285 H       1  ZINC000015179664    0.1000
     38 H38        -9.7421    2.8077   51.4127 H       1  ZINC000015179664    0.1000
     39 H39       -10.4511    1.8019   54.1658 H       1  ZINC000015179664    0.0800
     40 H40       -11.1595    3.3342   53.6014 H       1  ZINC000015179664    0.0800
     41 H41       -11.5948    0.6829   52.3755 H       1  ZINC000015179664    0.4000
     42 H42       -12.7817   -0.4253   51.1819 H       1  ZINC000015179664    0.1700
     43 H43       -16.4714    1.5345   49.2235 H       1  ZINC000015179664    0.1700
     44 H44       -15.0758    3.1963   50.5400 H       1  ZINC000015179664    0.1600
@<TRIPOS>BOND
     1     1     2    1
     2     1    27    1
     3     1    28    1
     4     1    29    1
     5     2     3    1
     6     2     4    1
     7     2    13    1
     8     4    12   ar
     9     4     5   ar
    10     5     6   ar
    11     5    30    1
    12     6     7   ar
    13     6    31    1
    14     7     8   ar
    15     7    32    1
    16     8     9    1
    17     8    12   ar
    18     9    10    2
    19     9    11    2
    20    12    33    1
    21    13    14    1
    22    13    15   am
    23    14    34    1
    24    14    35    1
    25    14    36    1
    26    15    16    2
    27    15    17    1
    28    17    18    1
    29    17    37    1
    30    17    38    1
    31    18    19    1
    32    18    39    1
    33    18    40    1
    34    19    20   am
    35    19    41    1
    36    20    21    2
    37    20    22    1
    38    22    26    1
    39    22    23    2
    40    23    24    1
    41    23    42    1
    42    24    25    1
    43    25    26    2
    44    25    43    1
    45    26    44    1
@<TRIPOS>SUBSTRUCTURE
     1 ZINC000015179664        1 TEMP              0 ****  ****    0 ROOT


##########                                Name:    ZINC000326056918
##########                DOCK_Rotatable_Bonds:                   6
##########                         Heavy_Atoms:                  24
##########                    Molecular_Weight:             408.326
##########                DOCK_Rotatable_Bonds:                   6
##########                       Formal_Charge:         -0.00999978
##########                     HBond_Acceptors:                   9
##########                        HBond_Donors:                   0
##########                         Heavy_Atoms:                  24
##########                          Grid_Score:          -27.859415
##########                     Grid_vdw_energy:          -28.465679
##########                      Grid_es_energy:            0.606265
##########           Internal_energy_repulsive:           20.876492

@<TRIPOS>MOLECULE
ZINC000326056918
 39 40 1 0 0
SMALL
USER_CHARGES


@<TRIPOS>ATOM
      1 C1         -8.1735    0.2907   64.8683 C.3     1  ZINC000326056918    0.0400
      2 O2         -7.9178    0.2948   63.4390 O.3     1  ZINC000326056918   -0.3500
      3 C3         -8.5987    1.1929   62.6977 C.2     1  ZINC000326056918    0.5000
      4 O4         -9.5467    1.7843   63.1782 O.2     1  ZINC000326056918   -0.4300
      5 C5         -8.1965    1.4558   61.3149 C.2     1  ZINC000326056918   -0.1600
      6 C6         -8.3518    0.5927   60.2657 C.2     1  ZINC000326056918   -0.6200
      7 S7         -9.0778   -1.0050   60.4248 S.o2    1  ZINC000326056918    2.6900
      8 O8         -8.0544   -1.9429   60.1212 O.2     1  ZINC000326056918   -0.9100
      9 O9         -9.7891   -1.0018   61.6550 O.2     1  ZINC000326056918   -0.9400
     10 N10       -10.2136   -1.1487   59.2283 N.am    1  ZINC000326056918   -0.9900
     11 C11       -10.0923   -2.2109   58.2268 C.3     1  ZINC000326056918    0.0900
     12 C12       -11.3399   -0.2134   59.1712 C.3     1  ZINC000326056918    0.1500
     13 C13       -12.6335   -0.9859   59.1445 C.ar    1  ZINC000326056918   -0.0900
     14 C14       -13.0478   -1.6783   60.2664 C.ar    1  ZINC000326056918   -0.0800
     15 C15       -14.2342   -2.3876   60.2427 C.ar    1  ZINC000326056918   -0.1100
     16 C16       -15.0075   -2.4043   59.0957 C.ar    1  ZINC000326056918   -0.0200
     17 Cl17      -16.4975   -3.2946   59.0662 Cl      1  ZINC000326056918   -0.0600
     18 C18       -14.5934   -1.7109   57.9724 C.ar    1  ZINC000326056918   -0.1100
     19 C19       -13.4090   -0.9972   57.9986 C.ar    1  ZINC000326056918   -0.0300
     20 Cl20      -12.8888   -0.1264   56.5897 Cl      1  ZINC000326056918   -0.0100
     21 C21        -7.8861    1.0957   59.0747 C.2     1  ZINC000326056918   -0.0400
     22 C22        -7.9554    0.3174   57.7861 C.3     1  ZINC000326056918   -0.1100
     23 C23        -7.3668    2.3275   59.1427 C.2     1  ZINC000326056918   -0.2600
     24 S24        -7.4430    2.9350   60.7352 S.3     1  ZINC000326056918    0.3100
     25 H25        -7.5631   -0.4767   65.3444 H       1  ZINC000326056918    0.1100
     26 H26        -7.9217    1.2657   65.2854 H       1  ZINC000326056918    0.0700
     27 H27        -9.2277    0.0798   65.0482 H       1  ZINC000326056918    0.0700
     28 H28       -10.5350   -3.1283   58.6148 H       1  ZINC000326056918    0.0600
     29 H29       -10.6124   -1.9133   57.3165 H       1  ZINC000326056918    0.0700
     30 H30        -9.0390   -2.3818   58.0042 H       1  ZINC000326056918    0.0900
     31 H31       -11.3205    0.4326   60.0490 H       1  ZINC000326056918    0.1100
     32 H32       -11.2614    0.3953   58.2704 H       1  ZINC000326056918    0.0900
     33 H33       -12.4444   -1.6656   61.1621 H       1  ZINC000326056918    0.1400
     34 H34       -14.5572   -2.9291   61.1195 H       1  ZINC000326056918    0.1400
     35 H35       -15.1969   -1.7236   57.0768 H       1  ZINC000326056918    0.1500
     36 H36        -8.9433    0.4379   57.3415 H       1  ZINC000326056918    0.0900
     37 H37        -7.1984    0.6897   57.0957 H       1  ZINC000326056918    0.0700
     38 H38        -7.7745   -0.7382   57.9889 H       1  ZINC000326056918    0.0900
     39 H39        -6.9576    2.8664   58.3010 H       1  ZINC000326056918    0.1800
@<TRIPOS>BOND
     1     1     2    1
     2     1    25    1
     3     1    26    1
     4     1    27    1
     5     2     3    1
     6     3     4    2
     7     3     5    1
     8     5    24    1
     9     5     6    2
    10     6     7    1
    11     6    21    1
    12     7     8    2
    13     7     9    2
    14     7    10   am
    15    10    11    1
    16    10    12    1
    17    11    28    1
    18    11    29    1
    19    11    30    1
    20    12    13    1
    21    12    31    1
    22    12    32    1
    23    13    19   ar
    24    13    14   ar
    25    14    15   ar
    26    14    33    1
    27    15    16   ar
    28    15    34    1
    29    16    17    1
    30    16    18   ar
    31    18    19   ar
    32    18    35    1
    33    19    20    1
    34    21    22    1
    35    21    23    2
    36    22    36    1
    37    22    37    1
    38    22    38    1
    39    23    24    1
    40    23    39    1
@<TRIPOS>SUBSTRUCTURE
     1 ZINC000326056918        1 TEMP              0 ****  ****    0 ROOT


##########                                Name:    ZINC000345028113
##########                DOCK_Rotatable_Bonds:                   5
##########                         Heavy_Atoms:                  21
##########                    Molecular_Weight:             331.838
##########                DOCK_Rotatable_Bonds:                   5
##########                       Formal_Charge:         4.47035e-07
##########                     HBond_Acceptors:                   6
##########                        HBond_Donors:                   0
##########                         Heavy_Atoms:                  21
##########                          Grid_Score:          -27.844881
##########                     Grid_vdw_energy:          -27.970726
##########                      Grid_es_energy:            0.125844
##########           Internal_energy_repulsive:           20.191929

@<TRIPOS>MOLECULE
ZINC000345028113
 40 41 1 0 0
SMALL
USER_CHARGES


@<TRIPOS>ATOM
      1 C1         -8.4741    2.2970   54.1529 C.3     1  ZINC000345028113   -0.1700
      2 C2         -8.9710    2.0574   52.7258 C.3     1  ZINC000345028113    0.1400
      3 H3         -9.3862    2.9824   52.3256 H       1  ZINC000345028113    0.1100
      4 C4        -10.0549    0.9742   52.7376 C.3     1  ZINC000345028113   -0.0700
      5 H5        -10.4371    0.8289   51.7272 H       1  ZINC000345028113    0.0900
      6 C6        -11.1971    1.4016   53.6615 C.3     1  ZINC000345028113   -0.1400
      7 S7         -9.3259   -0.5770   53.3420 S.3     1  ZINC000345028113   -0.2400
      8 C8         -7.9111   -0.8018   52.2236 C.3     1  ZINC000345028113   -0.1100
      9 C9         -7.0443    0.4612   52.2639 C.3     1  ZINC000345028113    0.1000
     10 N10        -7.8537    1.6211   51.8869 N.am    1  ZINC000345028113   -0.6100
     11 C11        -7.5670    2.2946   50.7552 C.2     1  ZINC000345028113    0.5200
     12 O12        -8.2344    3.2556   50.4360 O.2     1  ZINC000345028113   -0.5300
     13 C13        -6.4173    1.8535   49.8865 C.3     1  ZINC000345028113   -0.1400
     14 C14        -5.1038    2.3680   50.4789 C.3     1  ZINC000345028113    0.0700
     15 O15        -4.0136    1.9494   49.6553 O.3     1  ZINC000345028113   -0.3000
     16 C16        -2.7610    2.2556   50.0868 C.ar    1  ZINC000345028113    0.1300
     17 C17        -2.5814    3.2158   51.0706 C.ar    1  ZINC000345028113   -0.1700
     18 C18        -1.3078    3.5259   51.5086 C.ar    1  ZINC000345028113   -0.1100
     19 C19        -0.2113    2.8786   50.9657 C.ar    1  ZINC000345028113    0.0800
     20 F20         1.0329    3.1828   51.3955 F       1  ZINC000345028113   -0.1300
     21 C21        -0.3883    1.9192   49.9829 C.ar    1  ZINC000345028113   -0.1100
     22 C22        -1.6612    1.6031   49.5465 C.ar    1  ZINC000345028113   -0.0400
     23 Cl23       -1.8833    0.4004   48.3145 Cl      1  ZINC000345028113   -0.0400
     24 H24        -7.7032    3.0676   54.1446 H       1  ZINC000345028113    0.0600
     25 H25        -9.3060    2.6220   54.7775 H       1  ZINC000345028113    0.0800
     26 H26        -8.0589    1.3721   54.5532 H       1  ZINC000345028113    0.0800
     27 H27       -11.6243    2.3377   53.3019 H       1  ZINC000345028113    0.0800
     28 H28       -11.9669    0.6299   53.6685 H       1  ZINC000345028113    0.0700
     29 H29       -10.8137    1.5417   54.6722 H       1  ZINC000345028113    0.0700
     30 H30        -7.3219   -1.6598   52.5477 H       1  ZINC000345028113    0.1200
     31 H31        -8.2708   -0.9658   51.2078 H       1  ZINC000345028113    0.0900
     32 H32        -6.6546    0.6024   53.2720 H       1  ZINC000345028113    0.0900
     33 H33        -6.2145    0.3547   51.5652 H       1  ZINC000345028113    0.1000
     34 H34        -6.3934    0.7646   49.8408 H       1  ZINC000345028113    0.1100
     35 H35        -6.5454    2.2565   48.8819 H       1  ZINC000345028113    0.1100
     36 H36        -5.1276    3.4568   50.5243 H       1  ZINC000345028113    0.0800
     37 H37        -4.9758    1.9651   51.4836 H       1  ZINC000345028113    0.0800
     38 H38        -3.4363    3.7216   51.4943 H       1  ZINC000345028113    0.1500
     39 H39        -1.1679    4.2742   52.2747 H       1  ZINC000345028113    0.1500
     40 H40         0.4682    1.4151   49.5601 H       1  ZINC000345028113    0.1500
@<TRIPOS>BOND
     1     1     2    1
     2     1    24    1
     3     1    25    1
     4     1    26    1
     5     2     3    1
     6     2    10    1
     7     2     4    1
     8     4     5    1
     9     4     6    1
    10     4     7    1
    11     6    27    1
    12     6    28    1
    13     6    29    1
    14     7     8    1
    15     8     9    1
    16     8    30    1
    17     8    31    1
    18     9    10    1
    19     9    32    1
    20     9    33    1
    21    10    11   am
    22    11    12    2
    23    11    13    1
    24    13    14    1
    25    13    34    1
    26    13    35    1
    27    14    15    1
    28    14    36    1
    29    14    37    1
    30    15    16    1
    31    16    22   ar
    32    16    17   ar
    33    17    18   ar
    34    17    38    1
    35    18    19   ar
    36    18    39    1
    37    19    20    1
    38    19    21   ar
    39    21    22   ar
    40    21    40    1
    41    22    23    1
@<TRIPOS>SUBSTRUCTURE
     1 ZINC000345028113        1 TEMP              0 ****  ****    0 ROOT


##########                                Name:    ZINC000076573199
##########                DOCK_Rotatable_Bonds:                  10
##########                         Heavy_Atoms:                  24
##########                    Molecular_Weight:             333.431
##########                DOCK_Rotatable_Bonds:                  10
##########                       Formal_Charge:          -0.0200009
##########                     HBond_Acceptors:                   6
##########                        HBond_Donors:                   3
##########                         Heavy_Atoms:                  24
##########                          Grid_Score:          -27.812569
##########                     Grid_vdw_energy:          -25.872282
##########                      Grid_es_energy:           -1.940286
##########           Internal_energy_repulsive:           22.949594

@<TRIPOS>MOLECULE
ZINC000076573199
 51 51 1 0 0
SMALL
USER_CHARGES


@<TRIPOS>ATOM
      1 C1        -13.8450    0.0218   60.2935 C.3     1  ZINC000076573199   -0.1500
      2 C2        -14.3628   -1.2647   59.6469 C.3     1  ZINC000076573199   -0.1200
      3 C3        -14.9240   -0.9479   58.2593 C.3     1  ZINC000076573199   -0.1000
      4 H4        -14.1374   -0.5194   57.6383 H       1  ZINC000076573199    0.0700
      5 C5        -16.0729    0.0539   58.3903 C.3     1  ZINC000076573199   -0.1500
      6 C6        -15.4406   -2.2345   57.6122 C.3     1  ZINC000076573199   -0.1200
      7 C7        -14.2917   -3.2364   57.4812 C.3     1  ZINC000076573199    0.1400
      8 H8        -13.8606   -3.4255   58.4642 H       1  ZINC000076573199    0.1000
      9 C9        -14.8220   -4.5469   56.8961 C.3     1  ZINC000076573199   -0.1700
     10 N10       -13.2631   -2.6866   56.5946 N.am    1  ZINC000076573199   -0.6900
     11 C11       -11.9761   -3.0580   56.7438 C.2     1  ZINC000076573199    0.5100
     12 O12       -11.6691   -3.8468   57.6136 O.2     1  ZINC000076573199   -0.5100
     13 C13       -10.9278   -2.4989   55.8388 C.2     1  ZINC000076573199    0.5100
     14 O14        -9.9199   -3.1359   55.6112 O.2     1  ZINC000076573199   -0.5000
     15 N15       -11.1009   -1.2871   55.2748 N.am    1  ZINC000076573199   -0.6400
     16 C16       -10.1201   -0.7641   54.4281 C.ar    1  ZINC000076573199    0.1500
     17 C17       -10.1351   -1.0714   53.0730 C.ar    1  ZINC000076573199   -0.1300
     18 C18        -9.1657   -0.5540   52.2353 C.ar    1  ZINC000076573199   -0.0800
     19 C19        -8.1790    0.2699   52.7414 C.ar    1  ZINC000076573199   -0.1200
     20 C20        -7.1241    0.8321   51.8238 C.3     1  ZINC000076573199   -0.1100
     21 C21        -8.1584    0.5810   54.0955 C.ar    1  ZINC000076573199    0.1600
     22 N22        -7.1585    1.4155   54.6071 N.am    1  ZINC000076573199   -0.6700
     23 C23        -7.3985    2.7314   54.7725 C.2     1  ZINC000076573199    0.5100
     24 C24        -6.3217    3.6303   55.3234 C.3     1  ZINC000076573199   -0.1700
     25 O25        -8.4810    3.1922   54.4779 O.2     1  ZINC000076573199   -0.5200
     26 C26        -9.1329    0.0677   54.9386 C.ar    1  ZINC000076573199   -0.1400
     27 H27       -14.6630    0.7362   60.3867 H       1  ZINC000076573199    0.0600
     28 H28       -13.4452   -0.2039   61.2820 H       1  ZINC000076573199    0.0500
     29 H29       -13.0582    0.4495   59.6722 H       1  ZINC000076573199    0.0500
     30 H30       -13.5449   -1.9790   59.5536 H       1  ZINC000076573199    0.0600
     31 H31       -15.1497   -1.6923   60.2682 H       1  ZINC000076573199    0.0600
     32 H32       -16.8941   -0.4049   58.9411 H       1  ZINC000076573199    0.0600
     33 H33       -15.7253    0.9375   58.9257 H       1  ZINC000076573199    0.0600
     34 H34       -16.4180    0.3429   57.3977 H       1  ZINC000076573199    0.0500
     35 H35       -16.2272   -2.6631   58.2332 H       1  ZINC000076573199    0.0800
     36 H36       -15.8405   -2.0089   56.6236 H       1  ZINC000076573199    0.0700
     37 H37       -14.0034   -5.2606   56.8028 H       1  ZINC000076573199    0.0600
     38 H38       -15.5872   -4.9560   57.5558 H       1  ZINC000076573199    0.0700
     39 H39       -15.2530   -4.3577   55.9130 H       1  ZINC000076573199    0.0600
     40 H40       -13.5083   -2.0553   55.9001 H       1  ZINC000076573199    0.4100
     41 H41       -11.9064   -0.7782   55.4567 H       1  ZINC000076573199    0.4200
     42 H42       -10.9049   -1.7155   52.6743 H       1  ZINC000076573199    0.1400
     43 H43        -9.1792   -0.7946   51.1825 H       1  ZINC000076573199    0.1300
     44 H44        -7.4627    1.7877   51.4236 H       1  ZINC000076573199    0.0700
     45 H45        -6.1988    0.9789   52.3808 H       1  ZINC000076573199    0.0600
     46 H46        -6.9479    0.1364   51.0034 H       1  ZINC000076573199    0.0700
     47 H47        -6.2927    1.0471   54.8427 H       1  ZINC000076573199    0.4100
     48 H48        -5.4528    3.6017   54.6658 H       1  ZINC000076573199    0.0900
     49 H49        -6.6972    4.6517   55.3849 H       1  ZINC000076573199    0.1000
     50 H50        -6.0360    3.2877   56.3180 H       1  ZINC000076573199    0.0900
     51 H51        -9.1190    0.3082   55.9915 H       1  ZINC000076573199    0.1400
@<TRIPOS>BOND
     1     1     2    1
     2     1    27    1
     3     1    28    1
     4     1    29    1
     5     2     3    1
     6     2    30    1
     7     2    31    1
     8     3     4    1
     9     3     5    1
    10     3     6    1
    11     5    32    1
    12     5    33    1
    13     5    34    1
    14     6     7    1
    15     6    35    1
    16     6    36    1
    17     7     8    1
    18     7     9    1
    19     7    10    1
    20     9    37    1
    21     9    38    1
    22     9    39    1
    23    10    11   am
    24    10    40    1
    25    11    12    2
    26    11    13    1
    27    13    14    2
    28    13    15   am
    29    15    16    1
    30    15    41    1
    31    16    26   ar
    32    16    17   ar
    33    17    18   ar
    34    17    42    1
    35    18    19   ar
    36    18    43    1
    37    19    20    1
    38    19    21   ar
    39    20    44    1
    40    20    45    1
    41    20    46    1
    42    21    22    1
    43    21    26   ar
    44    22    23   am
    45    22    47    1
    46    23    24    1
    47    23    25    2
    48    24    48    1
    49    24    49    1
    50    24    50    1
    51    26    51    1
@<TRIPOS>SUBSTRUCTURE
     1 ZINC000076573199        1 TEMP              0 ****  ****    0 ROOT


##########                                Name:    ZINC001045438664
##########                DOCK_Rotatable_Bonds:                   6
##########                         Heavy_Atoms:                  26
##########                    Molecular_Weight:             352.439
##########                DOCK_Rotatable_Bonds:                   6
##########                       Formal_Charge:          -0.0099999
##########                     HBond_Acceptors:                   7
##########                        HBond_Donors:                   2
##########                         Heavy_Atoms:                  26
##########                          Grid_Score:          -27.807861
##########                     Grid_vdw_energy:          -27.291895
##########                      Grid_es_energy:           -0.515966
##########           Internal_energy_repulsive:            9.192871

@<TRIPOS>MOLECULE
ZINC001045438664
 50 53 1 0 0
SMALL
USER_CHARGES


@<TRIPOS>ATOM
      1 C1        -10.8703    3.6154   54.5321 C.3     1  ZINC001045438664   -0.1100
      2 C2        -10.2652    2.2455   54.7009 C.ar    1  ZINC001045438664    0.2100
      3 C3        -10.6216    1.4516   55.7728 C.ar    1  ZINC001045438664   -0.3000
      4 C4        -10.0346    0.1894   55.8870 C.ar    1  ZINC001045438664    0.4500
      5 N5        -10.3596   -0.6448   56.9442 N.pl3   1  ZINC001045438664   -0.7100
      6 C6        -10.0042   -0.2644   58.3136 C.3     1  ZINC001045438664    0.1500
      7 H7        -10.5755    0.6168   58.6057 H       1  ZINC001045438664    0.0900
      8 C8         -8.5088    0.0510   58.3835 C.3     1  ZINC001045438664   -0.1300
      9 C9         -8.1377    0.4484   59.8137 C.3     1  ZINC001045438664   -0.1200
     10 C10        -8.4603   -0.7066   60.7638 C.3     1  ZINC001045438664   -0.1200
     11 C11        -9.9558   -1.0221   60.6939 C.3     1  ZINC001045438664   -0.1300
     12 C12       -10.3269   -1.4194   59.2637 C.3     1  ZINC001045438664    0.1400
     13 H13        -9.7556   -2.3006   58.9717 H       1  ZINC001045438664    0.1000
     14 N14       -11.7588   -1.7214   59.1967 N.am    1  ZINC001045438664   -0.7200
     15 C15       -12.2015   -2.7145   58.4003 C.2     1  ZINC001045438664    0.5700
     16 O16       -11.4128   -3.3586   57.7366 O.2     1  ZINC001045438664   -0.5200
     17 C17       -13.6463   -3.0204   58.3340 C.ar    1  ZINC001045438664   -0.2500
     18 C18       -14.1272   -4.0491   57.5161 C.ar    1  ZINC001045438664    0.1900
     19 N19       -15.4265   -4.2887   57.4877 N.ar    1  ZINC001045438664   -0.5200
     20 C20       -16.2640   -3.5753   58.2147 C.ar    1  ZINC001045438664    0.3200
     21 N21       -15.8539   -2.5971   58.9982 N.ar    1  ZINC001045438664   -0.5200
     22 C22       -14.5712   -2.2933   59.0919 C.ar    1  ZINC001045438664    0.2100
     23 N23        -9.1594   -0.1988   54.9644 N.ar    1  ZINC001045438664   -0.5800
     24 C24        -8.8485    0.5922   53.9574 C.ar    1  ZINC001045438664    0.4000
     25 C25        -7.8523    0.1155   52.9319 C.3     1  ZINC001045438664   -0.1100
     26 C26        -7.9309    0.7286   51.5323 C.3     1  ZINC001045438664   -0.1500
     27 C27        -6.7835    1.1083   52.4704 C.3     1  ZINC001045438664   -0.1500
     28 N28        -9.3884    1.7861   53.8189 N.ar    1  ZINC001045438664   -0.5600
     29 H29       -11.7829    3.5392   53.9409 H       1  ZINC001045438664    0.0800
     30 H30       -11.1057    4.0320   55.5115 H       1  ZINC001045438664    0.0800
     31 H31       -10.1600    4.2660   54.0217 H       1  ZINC001045438664    0.0800
     32 H32       -11.3361    1.7981   56.5049 H       1  ZINC001045438664    0.1400
     33 H33       -10.8223   -1.4810   56.7776 H       1  ZINC001045438664    0.4100
     34 H34        -7.9375   -0.8301   58.0915 H       1  ZINC001045438664    0.0700
     35 H35        -8.2789    0.8739   57.7066 H       1  ZINC001045438664    0.0700
     36 H36        -7.0723    0.6730   59.8636 H       1  ZINC001045438664    0.0700
     37 H37        -8.7090    1.3295   60.1058 H       1  ZINC001045438664    0.0700
     38 H38        -7.8891   -1.5879   60.4717 H       1  ZINC001045438664    0.0700
     39 H39        -8.1960   -0.4236   61.7828 H       1  ZINC001045438664    0.0700
     40 H40       -10.1856   -1.8450   61.3708 H       1  ZINC001045438664    0.0800
     41 H41       -10.5271   -0.1409   60.9860 H       1  ZINC001045438664    0.0700
     42 H42       -12.3883   -1.2066   59.7255 H       1  ZINC001045438664    0.4000
     43 H43       -13.4475   -4.6376   56.9176 H       1  ZINC001045438664    0.1700
     44 H44       -17.3195   -3.7989   58.1665 H       1  ZINC001045438664    0.2100
     45 H45       -14.2431   -1.4908   59.7359 H       1  ZINC001045438664    0.1800
     46 H46        -7.5659   -0.9335   53.0069 H       1  ZINC001045438664    0.1300
     47 H47        -7.6963    0.0827   50.6862 H       1  ZINC001045438664    0.1000
     48 H48        -8.7031    1.4767   51.3532 H       1  ZINC001045438664    0.1100
     49 H49        -6.8009    2.1063   52.9085 H       1  ZINC001045438664    0.1000
     50 H50        -5.7941    0.7124   52.2415 H       1  ZINC001045438664    0.1000
@<TRIPOS>BOND
     1     1     2    1
     2     1    29    1
     3     1    30    1
     4     1    31    1
     5     2    28   ar
     6     2     3   ar
     7     3     4   ar
     8     3    32    1
     9     4     5    1
    10     4    23   ar
    11     5     6    1
    12     5    33    1
    13     6     7    1
    14     6    12    1
    15     6     8    1
    16     8     9    1
    17     8    34    1
    18     8    35    1
    19     9    10    1
    20     9    36    1
    21     9    37    1
    22    10    11    1
    23    10    38    1
    24    10    39    1
    25    11    12    1
    26    11    40    1
    27    11    41    1
    28    12    13    1
    29    12    14    1
    30    14    15   am
    31    14    42    1
    32    15    16    2
    33    15    17    1
    34    17    22   ar
    35    17    18   ar
    36    18    19   ar
    37    18    43    1
    38    19    20   ar
    39    20    21   ar
    40    20    44    1
    41    21    22   ar
    42    22    45    1
    43    23    24   ar
    44    24    25    1
    45    24    28   ar
    46    25    27    1
    47    25    26    1
    48    25    46    1
    49    26    27    1
    50    26    47    1
    51    26    48    1
    52    27    49    1
    53    27    50    1
@<TRIPOS>SUBSTRUCTURE
     1 ZINC001045438664        1 TEMP              0 ****  ****    0 ROOT


##########                                Name:    ZINC000482910431
##########                DOCK_Rotatable_Bonds:                   7
##########                         Heavy_Atoms:                  29
##########                    Molecular_Weight:             414.867
##########                DOCK_Rotatable_Bonds:                   7
##########                       Formal_Charge:          -0.0300001
##########                     HBond_Acceptors:                   8
##########                        HBond_Donors:                   2
##########                         Heavy_Atoms:                  29
##########                          Grid_Score:          -27.796656
##########                     Grid_vdw_energy:          -28.163950
##########                      Grid_es_energy:            0.367294
##########           Internal_energy_repulsive:           12.783907

@<TRIPOS>MOLECULE
ZINC000482910431
 49 51 1 0 0
SMALL
USER_CHARGES


@<TRIPOS>ATOM
      1 C1        -15.1812   -2.9979   58.4116 C.3     1  ZINC000482910431   -0.1500
      2 C2        -14.8796   -3.1891   56.9239 C.3     1  ZINC000482910431    0.0800
      3 C3        -14.3288   -4.5976   56.6921 C.3     1  ZINC000482910431   -0.1400
      4 C4        -16.1164   -3.0117   56.1457 C.1     1  ZINC000482910431    0.2100
      5 N5        -17.0710   -2.8749   55.5451 N.1     1  ZINC000482910431   -0.4300
      6 C6        -13.8588   -2.1718   56.4834 C.ar    1  ZINC000482910431   -0.1000
      7 C7        -14.2554   -1.0705   55.7472 C.ar    1  ZINC000482910431   -0.0900
      8 C8        -13.3224   -0.1361   55.3424 C.ar    1  ZINC000482910431   -0.1200
      9 C9        -11.9847   -0.3035   55.6754 C.ar    1  ZINC000482910431    0.1700
     10 N10       -11.0369    0.6418   55.2672 N.am    1  ZINC000482910431   -0.6800
     11 C11       -10.5669    0.6226   54.0043 C.2     1  ZINC000482910431    0.7100
     12 O12       -10.9662   -0.2159   53.2196 O.2     1  ZINC000482910431   -0.5500
     13 N13        -9.6540    1.5330   53.6111 N.am    1  ZINC000482910431   -0.7300
     14 C14        -9.1417    1.5111   52.2387 C.3     1  ZINC000482910431    0.1400
     15 H15        -9.6051    0.7033   51.6724 H       1  ZINC000482910431    0.1400
     16 C16        -9.3919    2.8706   51.5459 C.3     1  ZINC000482910431   -0.1400
     17 C17        -8.1179    3.0251   50.6860 C.3     1  ZINC000482910431    0.0900
     18 N18        -7.0887    2.2285   51.3643 N.am    1  ZINC000482910431   -0.5600
     19 C19        -5.7140    2.3513   51.1315 C.ar    1  ZINC000482910431    0.2000
     20 C20        -4.9291    3.1117   51.9879 C.ar    1  ZINC000482910431   -0.1600
     21 C21        -3.5723    3.2321   51.7570 C.ar    1  ZINC000482910431   -0.0500
     22 C22        -2.9944    2.5960   50.6734 C.ar    1  ZINC000482910431   -0.1000
     23 Cl23       -1.2891    2.7497   50.3864 Cl      1  ZINC000482910431   -0.0500
     24 C24        -3.7747    1.8356   49.8164 C.ar    1  ZINC000482910431    0.1400
     25 F25        -3.2081    1.2146   48.7588 F       1  ZINC000482910431   -0.1200
     26 C26        -5.1324    1.7081   50.0469 C.ar    1  ZINC000482910431   -0.1900
     27 C27        -7.6362    1.3623   52.2379 C.2     1  ZINC000482910431    0.5000
     28 O28        -7.0126    0.5813   52.9251 O.2     1  ZINC000482910431   -0.4800
     29 C29       -11.5896   -1.4105   56.4148 C.ar    1  ZINC000482910431   -0.1400
     30 C30       -12.5283   -2.3385   56.8211 C.ar    1  ZINC000482910431   -0.0900
     31 H31       -14.2654   -3.1292   58.9878 H       1  ZINC000482910431    0.0800
     32 H32       -15.5736   -1.9944   58.5767 H       1  ZINC000482910431    0.0700
     33 H33       -15.9196   -3.7337   58.7302 H       1  ZINC000482910431    0.0700
     34 H34       -15.0673   -5.3335   57.0107 H       1  ZINC000482910431    0.0700
     35 H35       -14.1139   -4.7339   55.6322 H       1  ZINC000482910431    0.0700
     36 H36       -13.4130   -4.7290   57.2683 H       1  ZINC000482910431    0.0800
     37 H37       -15.2959   -0.9411   55.4882 H       1  ZINC000482910431    0.1400
     38 H38       -13.6328    0.7236   54.7671 H       1  ZINC000482910431    0.1400
     39 H39       -10.7183    1.3106   55.8933 H       1  ZINC000482910431    0.4100
     40 H40        -9.3363    2.2026   54.2367 H       1  ZINC000482910431    0.4000
     41 H41       -10.2830    2.8310   50.9194 H       1  ZINC000482910431    0.1100
     42 H42        -9.4676    3.6739   52.2789 H       1  ZINC000482910431    0.1000
     43 H43        -8.2919    2.6397   49.6814 H       1  ZINC000482910431    0.0900
     44 H44        -7.8169    4.0718   50.6424 H       1  ZINC000482910431    0.1000
     45 H45        -5.3791    3.6093   52.8343 H       1  ZINC000482910431    0.1700
     46 H46        -2.9623    3.8241   52.4233 H       1  ZINC000482910431    0.1500
     47 H47        -5.7408    1.1155   49.3799 H       1  ZINC000482910431    0.1500
     48 H48       -10.5499   -1.5435   56.6754 H       1  ZINC000482910431    0.1300
     49 H49       -12.2216   -3.1996   57.3965 H       1  ZINC000482910431    0.1300
@<TRIPOS>BOND
     1     1     2    1
     2     1    31    1
     3     1    32    1
     4     1    33    1
     5     2     3    1
     6     2     4    1
     7     2     6    1
     8     3    34    1
     9     3    35    1
    10     3    36    1
    11     4     5    3
    12     6    30   ar
    13     6     7   ar
    14     7     8   ar
    15     7    37    1
    16     8     9   ar
    17     8    38    1
    18     9    10    1
    19     9    29   ar
    20    10    11   am
    21    10    39    1
    22    11    12    2
    23    11    13   am
    24    13    14    1
    25    13    40    1
    26    14    15    1
    27    14    27    1
    28    14    16    1
    29    16    17    1
    30    16    41    1
    31    16    42    1
    32    17    18    1
    33    17    43    1
    34    17    44    1
    35    18    19    1
    36    18    27   am
    37    19    26   ar
    38    19    20   ar
    39    20    21   ar
    40    20    45    1
    41    21    22   ar
    42    21    46    1
    43    22    23    1
    44    22    24   ar
    45    24    25    1
    46    24    26   ar
    47    26    47    1
    48    27    28    2
    49    29    30   ar
    50    29    48    1
    51    30    49    1
@<TRIPOS>SUBSTRUCTURE
     1 ZINC000482910431        1 TEMP              0 ****  ****    0 ROOT


##########                                Name:    ZINC000187810810
##########                DOCK_Rotatable_Bonds:                   7
##########                         Heavy_Atoms:                  27
##########                    Molecular_Weight:             386.414
##########                DOCK_Rotatable_Bonds:                   7
##########                       Formal_Charge:           0.0599998
##########                     HBond_Acceptors:                   8
##########                        HBond_Donors:                   1
##########                         Heavy_Atoms:                  27
##########                          Grid_Score:          -27.771669
##########                     Grid_vdw_energy:          -26.783110
##########                      Grid_es_energy:           -0.988559
##########           Internal_energy_repulsive:          108.675110

@<TRIPOS>MOLECULE
ZINC000187810810
 52 53 1 0 0
SMALL
USER_CHARGES


@<TRIPOS>ATOM
      1 C1        -15.6101   -3.9225   58.6703 C.3     1  ZINC000187810810   -0.1800
      2 C2        -15.1737   -2.4839   58.3852 C.3     1  ZINC000187810810    0.1400
      3 C3        -14.6599   -2.3822   56.9477 C.3     1  ZINC000187810810   -0.1800
      4 C4        -16.3666   -1.5435   58.5682 C.3     1  ZINC000187810810   -0.1400
      5 O5        -14.1153   -2.1079   59.3052 O.3     1  ZINC000187810810   -0.3600
      6 C6        -13.5081   -0.9260   59.0883 C.2     1  ZINC000187810810    0.6500
      7 O7        -14.0917    0.1110   59.3343 O.2     1  ZINC000187810810   -0.5600
      8 N8        -12.2530   -0.8930   58.5984 N.am    1  ZINC000187810810   -0.6000
      9 C9        -11.5373   -2.1384   58.2887 C.3     1  ZINC000187810810    0.1100
     10 C10       -10.1887   -2.1258   59.0153 C.3     1  ZINC000187810810   -0.1400
     11 C11        -9.4251   -0.8528   58.6430 C.3     1  ZINC000187810810    0.1800
     12 C12        -8.0630   -0.8534   59.3399 C.3     1  ZINC000187810810   -0.1600
     13 N13        -9.2309   -0.8069   57.1918 N.am    1  ZINC000187810810   -0.7100
     14 C14        -8.6625    0.2741   56.6218 C.2     1  ZINC000187810810    0.5500
     15 O15        -8.3125    1.2117   57.3117 O.2     1  ZINC000187810810   -0.5100
     16 C16        -8.4649    0.3197   55.1572 C.ar    1  ZINC000187810810   -0.0900
     17 C17        -7.4916    1.1550   54.6070 C.ar    1  ZINC000187810810   -0.0900
     18 C18        -7.3120    1.1925   53.2395 C.ar    1  ZINC000187810810   -0.0900
     19 C19        -8.0944    0.4047   52.4142 C.ar    1  ZINC000187810810   -0.0900
     20 C20        -9.0615   -0.4254   52.9533 C.ar    1  ZINC000187810810   -0.0800
     21 C21        -9.2471   -0.4769   54.3192 C.ar    1  ZINC000187810810   -0.1300
     22 C22       -10.3004   -1.3818   54.9047 C.3     1  ZINC000187810810    0.5200
     23 F23       -11.1050   -0.6515   55.7860 F       1  ZINC000187810810   -0.1800
     24 F24       -11.0911   -1.9041   53.8754 F       1  ZINC000187810810   -0.1600
     25 F25        -9.6832   -2.4296   55.5962 F       1  ZINC000187810810   -0.1600
     26 C26       -10.2255    0.3731   59.0891 C.3     1  ZINC000187810810   -0.1500
     27 C27       -11.5766    0.3889   58.3581 C.3     1  ZINC000187810810    0.1300
     28 H28       -14.7603   -4.5925   58.5398 H       1  ZINC000187810810    0.0900
     29 H29       -15.9761   -3.9949   59.6943 H       1  ZINC000187810810    0.0600
     30 H30       -16.4047   -4.2048   57.9796 H       1  ZINC000187810810    0.0700
     31 H31       -15.4546   -2.6645   56.2570 H       1  ZINC000187810810    0.0700
     32 H32       -14.3492   -1.3573   56.7445 H       1  ZINC000187810810    0.0600
     33 H33       -13.8101   -3.0522   56.8172 H       1  ZINC000187810810    0.0900
     34 H34       -16.7326   -1.6159   59.5924 H       1  ZINC000187810810    0.0700
     35 H35       -16.0558   -0.5187   58.3652 H       1  ZINC000187810810    0.0700
     36 H36       -17.1612   -1.8258   57.8775 H       1  ZINC000187810810    0.0800
     37 H37       -12.1261   -2.9916   58.6257 H       1  ZINC000187810810    0.1000
     38 H38       -11.3725   -2.2073   57.2134 H       1  ZINC000187810810    0.0700
     39 H39       -10.3555   -2.1483   60.0922 H       1  ZINC000187810810    0.0900
     40 H40        -9.6074   -2.9986   58.7183 H       1  ZINC000187810810    0.0900
     41 H41        -7.4924   -1.7257   59.0214 H       1  ZINC000187810810    0.0600
     42 H42        -7.5189    0.0533   59.0749 H       1  ZINC000187810810    0.0800
     43 H43        -8.2073   -0.8879   60.4197 H       1  ZINC000187810810    0.0700
     44 H44        -9.5112   -1.5546   56.6410 H       1  ZINC000187810810    0.4000
     45 H45        -6.8806    1.7710   55.2502 H       1  ZINC000187810810    0.1400
     46 H46        -6.5592    1.8384   52.8124 H       1  ZINC000187810810    0.1400
     47 H47        -7.9501    0.4380   51.3445 H       1  ZINC000187810810    0.1400
     48 H48        -9.6693   -1.0376   52.3035 H       1  ZINC000187810810    0.1500
     49 H49       -10.3919    0.3270   60.1653 H       1  ZINC000187810810    0.0800
     50 H50        -9.6703    1.2787   58.8447 H       1  ZINC000187810810    0.1000
     51 H51       -11.4122    0.5268   57.2893 H       1  ZINC000187810810    0.0700
     52 H52       -12.1909    1.2027   58.7434 H       1  ZINC000187810810    0.1000
@<TRIPOS>BOND
     1     1     2    1
     2     1    28    1
     3     1    29    1
     4     1    30    1
     5     2     3    1
     6     2     4    1
     7     2     5    1
     8     3    31    1
     9     3    32    1
    10     3    33    1
    11     4    34    1
    12     4    35    1
    13     4    36    1
    14     5     6    1
    15     6     7    2
    16     6     8   am
    17     8    27    1
    18     8     9    1
    19     9    10    1
    20     9    37    1
    21     9    38    1
    22    10    11    1
    23    10    39    1
    24    10    40    1
    25    11    12    1
    26    11    13    1
    27    11    26    1
    28    12    41    1
    29    12    42    1
    30    12    43    1
    31    13    14   am
    32    13    44    1
    33    14    15    2
    34    14    16    1
    35    16    21   ar
    36    16    17   ar
    37    17    18   ar
    38    17    45    1
    39    18    19   ar
    40    18    46    1
    41    19    20   ar
    42    19    47    1
    43    20    21   ar
    44    20    48    1
    45    21    22    1
    46    22    23    1
    47    22    24    1
    48    22    25    1
    49    26    27    1
    50    26    49    1
    51    26    50    1
    52    27    51    1
    53    27    52    1
@<TRIPOS>SUBSTRUCTURE
     1 ZINC000187810810        1 TEMP              0 ****  ****    0 ROOT


##########                                Name:    ZINC001282645012
##########                DOCK_Rotatable_Bonds:                   9
##########                         Heavy_Atoms:                  27
##########                    Molecular_Weight:             372.511
##########                DOCK_Rotatable_Bonds:                   9
##########                       Formal_Charge:          -0.0200004
##########                     HBond_Acceptors:                   6
##########                        HBond_Donors:                   1
##########                         Heavy_Atoms:                  27
##########                          Grid_Score:          -27.755959
##########                     Grid_vdw_energy:          -27.224569
##########                      Grid_es_energy:           -0.531390
##########           Internal_energy_repulsive:           44.179443

@<TRIPOS>MOLECULE
ZINC001282645012
 59 61 1 0 0
SMALL
USER_CHARGES


@<TRIPOS>ATOM
      1 C1        -10.2496    0.0339   55.1104 C.2     1  ZINC001282645012   -0.1900
      2 C2        -10.6035    1.1960   54.6203 C.2     1  ZINC001282645012   -0.1300
      3 C3        -11.2809    1.2723   53.2762 C.3     1  ZINC001282645012   -0.0500
      4 C4        -12.7159    0.7558   53.3983 C.3     1  ZINC001282645012   -0.1500
      5 C5        -11.3008    2.7252   52.7969 C.3     1  ZINC001282645012   -0.1400
      6 C6        -10.5251    0.4263   52.2841 C.2     1  ZINC001282645012    0.5500
      7 O7        -11.1168   -0.3854   51.6045 O.2     1  ZINC001282645012   -0.5300
      8 N8         -9.1917    0.5719   52.1521 N.am    1  ZINC001282645012   -0.6300
      9 C9         -8.2108   -0.1296   51.2561 C.3     1  ZINC001282645012    0.1200
     10 H10        -8.6285   -0.8916   50.5982 H       1  ZINC001282645012    0.1300
     11 C11        -7.1669   -0.6376   52.2957 C.3     1  ZINC001282645012   -0.1300
     12 C12        -7.1791    0.4627   53.3854 C.3     1  ZINC001282645012   -0.1300
     13 C13        -8.2297    1.4902   52.8510 C.3     1  ZINC001282645012    0.1200
     14 H14        -8.6642    2.1517   53.6006 H       1  ZINC001282645012    0.1200
     15 C15        -7.5295    2.1996   51.6530 C.3     1  ZINC001282645012    0.1300
     16 H16        -8.1104    3.0612   51.3240 H       1  ZINC001282645012    0.1000
     17 N17        -6.1694    2.6049   52.0168 N.am    1  ZINC001282645012   -0.7100
     18 C18        -5.5404    3.5646   51.3099 C.2     1  ZINC001282645012    0.5100
     19 O19        -6.0998    4.0918   50.3718 O.2     1  ZINC001282645012   -0.5100
     20 C20        -4.1421    3.9828   51.6852 C.3     1  ZINC001282645012    0.1200
     21 H21        -4.0073    5.0413   51.4626 H       1  ZINC001282645012    0.1300
     22 C22        -3.9222    3.7440   53.1803 C.3     1  ZINC001282645012   -0.1100
     23 C23        -2.5979    4.3790   53.6089 C.3     1  ZINC001282645012   -0.1000
     24 C24        -2.6409    5.8834   53.3337 C.3     1  ZINC001282645012   -0.1500
     25 C25        -2.3780    4.1402   55.1041 C.3     1  ZINC001282645012   -0.1500
     26 N26        -3.1743    3.1953   50.9173 N.pl3   1  ZINC001282645012   -0.4500
     27 C27        -3.4489    2.0972   50.1477 C.2     1  ZINC001282645012   -0.0600
     28 C28        -2.2787    1.6867   49.6228 C.2     1  ZINC001282645012   -0.0200
     29 N29        -1.3157    2.5115   50.0602 N.2     1  ZINC001282645012   -0.4900
     30 C30        -1.8456    3.4206   50.8321 C.2     1  ZINC001282645012    0.1900
     31 C31        -7.5402    1.0820   50.5410 C.3     1  ZINC001282645012   -0.1400
     32 H32       -10.4432   -0.8697   54.5512 H       1  ZINC001282645012    0.1000
     33 H33        -9.7601   -0.0205   56.0716 H       1  ZINC001282645012    0.1000
     34 H34       -10.4099    2.0995   55.1794 H       1  ZINC001282645012    0.1100
     35 H35       -13.2625    1.3677   54.1158 H       1  ZINC001282645012    0.0700
     36 H36       -13.2058    0.8110   52.4261 H       1  ZINC001282645012    0.0700
     37 H37       -12.7017   -0.2792   53.7397 H       1  ZINC001282645012    0.0600
     38 H38       -10.2784    3.0931   52.7101 H       1  ZINC001282645012    0.0600
     39 H39       -11.7907    2.7803   51.8248 H       1  ZINC001282645012    0.0700
     40 H40       -11.8473    3.3370   53.5145 H       1  ZINC001282645012    0.0700
     41 H41        -7.4762   -1.5955   52.7139 H       1  ZINC001282645012    0.0800
     42 H42        -6.1794   -0.7167   51.8412 H       1  ZINC001282645012    0.0800
     43 H43        -7.4945    0.0503   54.3438 H       1  ZINC001282645012    0.0700
     44 H44        -6.1978    0.9290   53.4711 H       1  ZINC001282645012    0.0800
     45 H45        -5.7216    2.1824   52.7663 H       1  ZINC001282645012    0.4000
     46 H46        -4.7398    4.1932   53.7440 H       1  ZINC001282645012    0.0900
     47 H47        -3.8915    2.6722   53.3764 H       1  ZINC001282645012    0.0800
     48 H48        -1.7803    3.9297   53.0452 H       1  ZINC001282645012    0.0700
     49 H49        -3.4585    6.3327   53.8974 H       1  ZINC001282645012    0.0600
     50 H50        -1.6974    6.3357   53.6390 H       1  ZINC001282645012    0.0600
     51 H51        -2.7976    6.0535   52.2685 H       1  ZINC001282645012    0.0500
     52 H52        -2.2619    3.0720   55.2882 H       1  ZINC001282645012    0.0600
     53 H53        -1.4788    4.6645   55.4274 H       1  ZINC001282645012    0.0600
     54 H54        -3.2368    4.5136   55.6618 H       1  ZINC001282645012    0.0600
     55 H55        -4.4179    1.6465   49.9915 H       1  ZINC001282645012    0.1700
     56 H56        -2.1398    0.8414   48.9651 H       1  ZINC001282645012    0.1700
     57 H57        -1.3093    4.2173   51.3261 H       1  ZINC001282645012    0.2000
     58 H58        -6.5229    0.8172   50.2528 H       1  ZINC001282645012    0.0900
     59 H59        -8.1133    1.4090   49.6734 H       1  ZINC001282645012    0.0900
@<TRIPOS>BOND
     1     1     2    2
     2     1    32    1
     3     1    33    1
     4     2     3    1
     5     2    34    1
     6     3     4    1
     7     3     5    1
     8     3     6    1
     9     4    35    1
    10     4    36    1
    11     4    37    1
    12     5    38    1
    13     5    39    1
    14     5    40    1
    15     6     7    2
    16     6     8   am
    17     8    13    1
    18     8     9    1
    19     9    10    1
    20     9    31    1
    21     9    11    1
    22    11    12    1
    23    11    41    1
    24    11    42    1
    25    12    13    1
    26    12    43    1
    27    12    44    1
    28    13    14    1
    29    13    15    1
    30    15    16    1
    31    15    17    1
    32    15    31    1
    33    17    18   am
    34    17    45    1
    35    18    19    2
    36    18    20    1
    37    20    21    1
    38    20    22    1
    39    20    26    1
    40    22    23    1
    41    22    46    1
    42    22    47    1
    43    23    24    1
    44    23    25    1
    45    23    48    1
    46    24    49    1
    47    24    50    1
    48    24    51    1
    49    25    52    1
    50    25    53    1
    51    25    54    1
    52    26    30    1
    53    26    27    1
    54    27    28    2
    55    27    55    1
    56    28    29    1
    57    28    56    1
    58    29    30    2
    59    30    57    1
    60    31    58    1
    61    31    59    1
@<TRIPOS>SUBSTRUCTURE
     1 ZINC001282645012        1 TEMP              0 ****  ****    0 ROOT


##########                                Name:    ZINC001401207732
##########                DOCK_Rotatable_Bonds:                   8
##########                         Heavy_Atoms:                  23
##########                    Molecular_Weight:             337.446
##########                DOCK_Rotatable_Bonds:                   8
##########                       Formal_Charge:          -0.0199995
##########                     HBond_Acceptors:                   8
##########                        HBond_Donors:                   1
##########                         Heavy_Atoms:                  23
##########                          Grid_Score:          -27.728073
##########                     Grid_vdw_energy:          -27.796791
##########                      Grid_es_energy:            0.068718
##########           Internal_energy_repulsive:           23.743244

@<TRIPOS>MOLECULE
ZINC001401207732
 46 47 1 0 0
SMALL
USER_CHARGES


@<TRIPOS>ATOM
      1 C1          4.4301    1.5413   51.7307 C.3     1  ZINC001401207732   -0.0900
      2 C2          3.2815    2.2798   52.3685 C.2     1  ZINC001401207732    0.1500
      3 C3          2.0491    2.3526   51.8061 C.2     1  ZINC001401207732   -0.3000
      4 C4          1.6427    1.7495   50.5323 C.2     1  ZINC001401207732    0.6100
      5 O5          1.7308    0.5463   50.3733 O.2     1  ZINC001401207732   -0.5200
      6 N6          1.1716    2.5278   49.5380 N.am    1  ZINC001401207732   -0.5900
      7 C7          1.0655    3.9764   49.7295 C.3     1  ZINC001401207732    0.0700
      8 C8          0.7657    1.9255   48.2659 C.3     1  ZINC001401207732    0.1400
      9 H9          0.3511    2.6954   47.6152 H       1  ZINC001401207732    0.1100
     10 C10         1.9828    1.2890   47.5915 C.3     1  ZINC001401207732   -0.1600
     11 C11        -0.2934    0.8519   48.5247 C.3     1  ZINC001401207732    0.0500
     12 N12        -1.1590    1.2755   49.6334 N.3     1  ZINC001401207732   -0.6800
     13 C13        -2.5653    0.9540   49.3557 C.3     1  ZINC001401207732    0.1500
     14 C14        -3.4496    2.0307   49.9300 C.2     1  ZINC001401207732    0.1800
     15 N15        -4.7599    2.0664   49.8944 N.2     1  ZINC001401207732   -0.4800
     16 C16        -5.1083    3.2022   50.5250 C.2     1  ZINC001401207732    0.1800
     17 C17        -6.5117    3.7033   50.7496 C.3     1  ZINC001401207732   -0.0100
     18 C18        -7.5064    2.7477   50.0878 C.3     1  ZINC001401207732   -0.1500
     19 C19        -6.7940    3.7733   52.2516 C.3     1  ZINC001401207732   -0.1500
     20 N20        -4.0124    3.7883   50.9048 N.2     1  ZINC001401207732   -0.3800
     21 O21        -3.0484    3.1287   50.5776 O.3     1  ZINC001401207732    0.0900
     22 S22         1.0262    3.3083   52.8765 S.3     1  ZINC001401207732    0.1800
     23 C23         2.3311    3.5050   53.9632 C.2     1  ZINC001401207732    0.0100
     24 N24         3.3867    2.9059   53.5136 N.2     1  ZINC001401207732   -0.4800
     25 H25         4.9835    2.2206   51.0822 H       1  ZINC001401207732    0.0800
     26 H26         5.0928    1.1599   52.5075 H       1  ZINC001401207732    0.0800
     27 H27         4.0446    0.7094   51.1413 H       1  ZINC001401207732    0.1000
     28 H28         0.1275    4.2085   50.2341 H       1  ZINC001401207732    0.0600
     29 H29         1.9008    4.3249   50.3370 H       1  ZINC001401207732    0.0800
     30 H30         1.0891    4.4737   48.7599 H       1  ZINC001401207732    0.0900
     31 H31         1.6806    0.8408   46.6450 H       1  ZINC001401207732    0.0700
     32 H32         2.7372    2.0538   47.4070 H       1  ZINC001401207732    0.0700
     33 H33         2.3974    0.5191   48.2421 H       1  ZINC001401207732    0.0600
     34 H34         0.1966   -0.0865   48.7844 H       1  ZINC001401207732    0.0800
     35 H35        -0.8953    0.7114   47.6270 H       1  ZINC001401207732    0.0500
     36 H36        -1.0443    2.2593   49.8262 H       1  ZINC001401207732    0.3600
     37 H37        -2.8159   -0.0037   49.8120 H       1  ZINC001401207732    0.1100
     38 H38        -2.7184    0.8942   48.2782 H       1  ZINC001401207732    0.0800
     39 H39        -6.6170    4.6967   50.3134 H       1  ZINC001401207732    0.1000
     40 H40        -8.5215    3.1101   50.2502 H       1  ZINC001401207732    0.0700
     41 H41        -7.3054    2.6978   49.0176 H       1  ZINC001401207732    0.0600
     42 H42        -7.4013    1.7543   50.5240 H       1  ZINC001401207732    0.0600
     43 H43        -6.0852    4.4541   52.7232 H       1  ZINC001401207732    0.0600
     44 H44        -7.8089    4.1358   52.4141 H       1  ZINC001401207732    0.0700
     45 H45        -6.6887    2.7800   52.6879 H       1  ZINC001401207732    0.0600
     46 H46         2.2829    4.0554   54.8912 H       1  ZINC001401207732    0.2000
@<TRIPOS>BOND
     1     1     2    1
     2     1    25    1
     3     1    26    1
     4     1    27    1
     5     2    24    1
     6     2     3    2
     7     3     4    1
     8     3    22    1
     9     4     5    2
    10     4     6   am
    11     6     7    1
    12     6     8    1
    13     7    28    1
    14     7    29    1
    15     7    30    1
    16     8     9    1
    17     8    10    1
    18     8    11    1
    19    10    31    1
    20    10    32    1
    21    10    33    1
    22    11    12    1
    23    11    34    1
    24    11    35    1
    25    12    13    1
    26    12    36    1
    27    13    14    1
    28    13    37    1
    29    13    38    1
    30    14    21    1
    31    14    15    2
    32    15    16    1
    33    16    17    1
    34    16    20    2
    35    17    18    1
    36    17    19    1
    37    17    39    1
    38    18    40    1
    39    18    41    1
    40    18    42    1
    41    19    43    1
    42    19    44    1
    43    19    45    1
    44    20    21    1
    45    22    23    1
    46    23    24    2
    47    23    46    1
@<TRIPOS>SUBSTRUCTURE
     1 ZINC001401207732        1 TEMP              0 ****  ****    0 ROOT


##########                                Name:    ZINC000426567005
##########                DOCK_Rotatable_Bonds:                   9
##########                         Heavy_Atoms:                  31
##########                    Molecular_Weight:             417.467
##########                DOCK_Rotatable_Bonds:                   9
##########                       Formal_Charge:        -2.23517e-07
##########                     HBond_Acceptors:                   8
##########                        HBond_Donors:                   4
##########                         Heavy_Atoms:                  31
##########                          Grid_Score:          -27.721558
##########                     Grid_vdw_energy:          -27.448544
##########                      Grid_es_energy:           -0.273014
##########           Internal_energy_repulsive:           31.316128

@<TRIPOS>MOLECULE
ZINC000426567005
 54 57 1 0 0
SMALL
USER_CHARGES


@<TRIPOS>ATOM
      1 O1         -3.8856    2.7997   51.0528 O.2     1  ZINC000426567005   -0.4900
      2 C2         -4.4811    1.9680   50.3991 C.2     1  ZINC000426567005    0.5200
      3 N3         -3.8261    1.2485   49.4665 N.am    1  ZINC000426567005   -0.6000
      4 C4         -2.4610    1.4643   49.2476 C.2     1  ZINC000426567005    0.3000
      5 N5         -1.7108    0.8338   48.3740 N.2     1  ZINC000426567005   -0.3100
      6 N6         -0.4090    1.3420   48.4693 N.pl3   1  ZINC000426567005   -0.4600
      7 C7         -0.4007    2.2951   49.4251 C.2     1  ZINC000426567005    0.1100
      8 C8          0.7931    3.1063   49.8586 C.3     1  ZINC000426567005   -0.0300
      9 C9          0.7322    3.3902   51.3800 C.3     1  ZINC000426567005   -0.1200
     10 C10         2.2164    3.6495   51.7389 C.3     1  ZINC000426567005   -0.1300
     11 C11         2.9972    2.6399   50.8724 C.3     1  ZINC000426567005   -0.1300
     12 C12         2.0923    2.2945   49.6768 C.3     1  ZINC000426567005   -0.1200
     13 C13        -1.6548    2.3977   49.9199 C.2     1  ZINC000426567005   -0.2600
     14 C14        -5.9372    1.7378   50.6325 C.2     1  ZINC000426567005    0.5200
     15 O15        -6.5860    1.0957   49.8326 O.2     1  ZINC000426567005   -0.4900
     16 N16        -6.5316    2.2431   51.7315 N.am    1  ZINC000426567005   -0.6400
     17 C17        -7.8903    2.0283   51.9493 C.ar    1  ZINC000426567005    0.1700
     18 C18        -8.7386    3.1104   52.1652 C.ar    1  ZINC000426567005   -0.1300
     19 C19       -10.0821    2.9015   52.3807 C.ar    1  ZINC000426567005   -0.0300
     20 C20       -10.5941    1.6009   52.3822 C.ar    1  ZINC000426567005   -0.1500
     21 C21       -12.0339    1.3733   52.6124 C.2     1  ZINC000426567005    0.5600
     22 O22       -12.6038    1.9521   53.5173 O.2     1  ZINC000426567005   -0.5100
     23 N23       -12.7171    0.5240   51.8198 N.am    1  ZINC000426567005   -0.6700
     24 C24       -14.0815    0.3083   52.0379 C.ar    1  ZINC000426567005    0.1400
     25 C25       -14.5151   -0.2531   53.2320 C.ar    1  ZINC000426567005   -0.1500
     26 C26       -15.8634   -0.4643   53.4447 C.ar    1  ZINC000426567005   -0.1000
     27 C27       -16.7811   -0.1175   52.4701 C.ar    1  ZINC000426567005   -0.1300
     28 C28       -16.3527    0.4413   51.2799 C.ar    1  ZINC000426567005   -0.1000
     29 C29       -15.0064    0.6605   51.0634 C.ar    1  ZINC000426567005   -0.1200
     30 C30        -9.7397    0.5165   52.1646 C.ar    1  ZINC000426567005   -0.0600
     31 C31        -8.3980    0.7324   51.9449 C.ar    1  ZINC000426567005   -0.1400
     32 H32        -4.3010    0.5810   48.9470 H       1  ZINC000426567005    0.4300
     33 H33         0.3534    1.0584   47.9407 H       1  ZINC000426567005    0.4400
     34 H34         0.8441    4.0387   49.2963 H       1  ZINC000426567005    0.1100
     35 H35         0.1255    4.2723   51.5844 H       1  ZINC000426567005    0.0800
     36 H36         0.3501    2.5236   51.9196 H       1  ZINC000426567005    0.0700
     37 H37         2.4982    4.6706   51.4822 H       1  ZINC000426567005    0.0700
     38 H38         2.3917    3.4592   52.7978 H       1  ZINC000426567005    0.0700
     39 H39         3.9256    3.0895   50.5203 H       1  ZINC000426567005    0.0700
     40 H40         3.2128    1.7407   51.4495 H       1  ZINC000426567005    0.0700
     41 H41         1.8686    1.2277   49.6738 H       1  ZINC000426567005    0.0600
     42 H42         2.5815    2.5766   48.7445 H       1  ZINC000426567005    0.0700
     43 H43        -1.9779    3.0724   50.6987 H       1  ZINC000426567005    0.1700
     44 H44        -6.0132    2.7564   52.3708 H       1  ZINC000426567005    0.4300
     45 H45        -8.3424    4.1151   52.1639 H       1  ZINC000426567005    0.1500
     46 H46       -10.7397    3.7414   52.5490 H       1  ZINC000426567005    0.1400
     47 H47       -12.2624    0.0623   51.0980 H       1  ZINC000426567005    0.4100
     48 H48       -13.7988   -0.5245   53.9934 H       1  ZINC000426567005    0.1300
     49 H49       -16.2011   -0.9012   54.3727 H       1  ZINC000426567005    0.1300
     50 H50       -17.8349   -0.2837   52.6388 H       1  ZINC000426567005    0.1200
     51 H51       -17.0720    0.7105   50.5206 H       1  ZINC000426567005    0.1300
     52 H52       -14.6724    1.0972   50.1339 H       1  ZINC000426567005    0.1300
     53 H53       -10.1322   -0.4897   52.1655 H       1  ZINC000426567005    0.1300
     54 H54        -7.7372   -0.1052   51.7767 H       1  ZINC000426567005    0.1400
@<TRIPOS>BOND
     1     1     2    2
     2     2     3   am
     3     2    14    1
     4     3     4    1
     5     3    32    1
     6     4    13    1
     7     4     5    2
     8     5     6    1
     9     6     7    1
    10     6    33    1
    11     7     8    1
    12     7    13    2
    13     8    12    1
    14     8     9    1
    15     8    34    1
    16     9    10    1
    17     9    35    1
    18     9    36    1
    19    10    11    1
    20    10    37    1
    21    10    38    1
    22    11    12    1
    23    11    39    1
    24    11    40    1
    25    12    41    1
    26    12    42    1
    27    13    43    1
    28    14    15    2
    29    14    16   am
    30    16    17    1
    31    16    44    1
    32    17    31   ar
    33    17    18   ar
    34    18    19   ar
    35    18    45    1
    36    19    20   ar
    37    19    46    1
    38    20    21    1
    39    20    30   ar
    40    21    22    2
    41    21    23   am
    42    23    24    1
    43    23    47    1
    44    24    29   ar
    45    24    25   ar
    46    25    26   ar
    47    25    48    1
    48    26    27   ar
    49    26    49    1
    50    27    28   ar
    51    27    50    1
    52    28    29   ar
    53    28    51    1
    54    29    52    1
    55    30    31   ar
    56    30    53    1
    57    31    54    1
@<TRIPOS>SUBSTRUCTURE
     1 ZINC000426567005        1 TEMP              0 ****  ****    0 ROOT


##########                                Name:    ZINC000012087388
##########                DOCK_Rotatable_Bonds:                   5
##########                         Heavy_Atoms:                  29
##########                    Molecular_Weight:              418.52
##########                DOCK_Rotatable_Bonds:                   5
##########                       Formal_Charge:          -0.0499999
##########                     HBond_Acceptors:                  10
##########                        HBond_Donors:                   1
##########                         Heavy_Atoms:                  29
##########                          Grid_Score:          -27.715786
##########                     Grid_vdw_energy:          -27.915012
##########                      Grid_es_energy:            0.199225
##########           Internal_energy_repulsive:           32.076591

@<TRIPOS>MOLECULE
ZINC000012087388
 55 58 1 0 0
SMALL
USER_CHARGES


@<TRIPOS>ATOM
      1 C1         -8.4600   -0.7300   60.5631 C.3     1  <0>        -0.6600
      2 S2         -8.9027    0.9847   60.1706 S.o2    1  <0>         2.5100
      3 O3        -10.2593    1.2392   60.5082 O.2     1  <0>        -0.9400
      4 O4         -7.8685    1.8716   60.5744 O.2     1  <0>        -0.9300
      5 C5         -8.8724    1.0547   58.4103 C.ar    1  <0>        -0.8400
      6 C6         -7.8558    1.7221   57.7457 C.ar    1  <0>         0.3000
      7 N7         -7.8624    1.7554   56.4233 N.ar    1  <0>        -0.5800
      8 C8         -8.8258    1.1604   55.7357 C.ar    1  <0>         0.6000
      9 N9         -8.8018    1.2150   54.3529 N.pl3   1  <0>        -0.5700
     10 C10        -7.5262    1.3041   53.6293 C.3     1  <0>         0.1200
     11 C11        -7.4673    0.1773   52.5932 C.3     1  <0>        -0.1400
     12 C12        -8.7051    0.2493   51.6961 C.3     1  <0>        -0.1200
     13 C13        -9.9642    0.0596   52.5451 C.3     1  <0>        -0.1400
     14 C14       -10.0511    1.1789   53.5805 C.3     1  <0>         0.1200
     15 N15        -9.8118    0.5138   56.3403 N.ar    1  <0>        -0.5700
     16 C16        -9.8618    0.4385   57.6599 C.ar    1  <0>         0.3200
     17 C17       -10.9865   -0.2988   58.3396 C.3     1  <0>        -0.0700
     18 C18       -12.2543    0.5577   58.3014 C.3     1  <0>        -0.1300
     19 C19       -13.3862   -0.1802   59.0234 C.3     1  <0>         0.0900
     20 N20       -13.5400   -1.5127   58.4241 N.am    1  <0>        -0.6100
     21 C21       -14.7395   -1.9274   57.9705 C.2     1  <0>         0.5900
     22 O22       -15.7077   -1.1962   58.0555 O.2     1  <0>        -0.5100
     23 C23       -14.8777   -3.2650   57.3726 C.2     1  <0>        -0.0400
     24 C24       -15.1337   -3.5588   56.0446 C.2     1  <0>        -0.1500
     25 C25       -15.1734   -4.9533   55.9752 C.2     1  <0>         0.0000
     26 N26       -14.9557   -5.4213   57.1777 N.2     1  <0>        -0.2700
     27 N27       -14.7733   -4.4654   58.0160 N.pl3   1  <0>        -0.3900
     28 C28       -12.3612   -2.3845   58.3281 C.3     1  <0>         0.1100
     29 C29       -11.2409   -1.6221   57.6139 C.3     1  <0>        -0.1200
     30 H30        -9.1900   -1.4051   60.1164 H       1  <0>         0.1400
     31 H31        -7.4698   -0.9501   60.1641 H       1  <0>         0.1300
     32 H32        -8.4542   -0.8654   61.6447 H       1  <0>         0.1400
     33 H33        -7.0678    2.2094   58.3008 H       1  <0>         0.1900
     34 H34        -7.4587    2.2681   53.1251 H       1  <0>         0.0700
     35 H35        -6.6995    1.1982   54.3318 H       1  <0>         0.1000
     36 H36        -6.5699    0.2892   51.9846 H       1  <0>         0.0800
     37 H37        -7.4435   -0.7855   53.1037 H       1  <0>         0.0700
     38 H38        -8.7415    1.2217   51.2049 H       1  <0>         0.0700
     39 H39        -8.6536   -0.5363   50.9423 H       1  <0>         0.0700
     40 H40       -10.8441    0.0877   51.9024 H       1  <0>         0.0800
     41 H41        -9.9169   -0.9021   53.0561 H       1  <0>         0.0700
     42 H42       -10.8910    0.9930   54.2499 H       1  <0>         0.1000
     43 H43       -10.1889    2.1346   53.0747 H       1  <0>         0.0700
     44 H44       -10.7153   -0.4995   59.3761 H       1  <0>         0.1000
     45 H45       -12.0655    1.5094   58.7981 H       1  <0>         0.0800
     46 H46       -12.5405    0.7379   57.2652 H       1  <0>         0.0900
     47 H47       -13.1405   -0.2811   60.0806 H       1  <0>         0.0800
     48 H48       -14.3153    0.3792   58.9139 H       1  <0>         0.0900
     49 H49       -15.2730   -2.8587   55.2342 H       1  <0>         0.1700
     50 H50       -15.3526   -5.5409   55.0869 H       1  <0>         0.1900
     51 H51       -14.5955   -4.5785   58.9628 H       1  <0>         0.4400
     52 H52       -12.0319   -2.6653   59.3286 H       1  <0>         0.0800
     53 H53       -12.6140   -3.2796   57.7598 H       1  <0>         0.1000
     54 H54       -11.5365   -1.4213   56.5842 H       1  <0>         0.0800
     55 H55       -10.3306   -2.2217   57.6212 H       1  <0>         0.0900
@<TRIPOS>BOND
     1     1     2    1
     2     1    30    1
     3     1    31    1
     4     1    32    1
     5     2     3    2
     6     2     4    2
     7     2     5    1
     8     5    16   ar
     9     5     6   ar
    10     6     7   ar
    11     6    33    1
    12     7     8   ar
    13     8     9    1
    14     8    15   ar
    15     9    14    1
    16     9    10    1
    17    10    11    1
    18    10    34    1
    19    10    35    1
    20    11    12    1
    21    11    36    1
    22    11    37    1
    23    12    13    1
    24    12    38    1
    25    12    39    1
    26    13    14    1
    27    13    40    1
    28    13    41    1
    29    14    42    1
    30    14    43    1
    31    15    16   ar
    32    16    17    1
    33    17    29    1
    34    17    18    1
    35    17    44    1
    36    18    19    1
    37    18    45    1
    38    18    46    1
    39    19    20    1
    40    19    47    1
    41    19    48    1
    42    20    21   am
    43    20    28    1
    44    21    22    2
    45    21    23    1
    46    23    27    1
    47    23    24    2
    48    24    25    1
    49    24    49    1
    50    25    26    2
    51    25    50    1
    52    26    27    1
    53    27    51    1
    54    28    29    1
    55    28    52    1
    56    28    53    1
    57    29    54    1
    58    29    55    1
@<TRIPOS>SUBSTRUCTURE
     1 <0>         1 TEMP              0 ****  ****    0 ROOT


##########                                Name:    ZINC000271662144
##########                DOCK_Rotatable_Bonds:                   8
##########                         Heavy_Atoms:                  26
##########                    Molecular_Weight:             390.402
##########                DOCK_Rotatable_Bonds:                   8
##########                       Formal_Charge:          0.00999944
##########                     HBond_Acceptors:                   9
##########                        HBond_Donors:                   3
##########                         Heavy_Atoms:                  26
##########                          Grid_Score:          -27.715425
##########                     Grid_vdw_energy:          -27.150904
##########                      Grid_es_energy:           -0.564522
##########           Internal_energy_repulsive:           18.708782

@<TRIPOS>MOLECULE
ZINC000271662144
 44 45 1 0 0
SMALL
USER_CHARGES


@<TRIPOS>ATOM
      1 C1         -7.1381    0.0796   52.8313 C.3     1  ZINC000271662144   -0.1400
      2 C2         -8.2178    0.9548   53.4711 C.3     1  ZINC000271662144    0.1200
      3 H3         -9.1425    0.8657   52.9011 H       1  ZINC000271662144    0.0600
      4 N4         -7.7758    2.3557   53.4715 N.3     1  ZINC000271662144   -0.6700
      5 C5         -7.6114    2.8562   52.1002 C.3     1  ZINC000271662144    0.1300
      6 H6         -8.0870    2.1670   51.4024 H       1  ZINC000271662144    0.1100
      7 C7         -8.2629    4.2352   51.9790 C.3     1  ZINC000271662144   -0.2000
      8 C8         -8.1624    4.7213   50.5317 C.3     1  ZINC000271662144    0.4600
      9 F9         -8.9293    5.8809   50.3751 F       1  ZINC000271662144   -0.1800
     10 F10        -6.8263    5.0010   50.2254 F       1  ZINC000271662144   -0.1800
     11 F11        -8.6399    3.7267   49.6715 F       1  ZINC000271662144   -0.1700
     12 C12        -6.1433    2.9641   51.7776 C.ar    1  ZINC000271662144   -0.0900
     13 C13        -5.6745    2.5485   50.5453 C.ar    1  ZINC000271662144   -0.0600
     14 C14        -4.3285    2.6469   50.2483 C.ar    1  ZINC000271662144   -0.1600
     15 C15        -3.4493    3.1625   51.1855 C.ar    1  ZINC000271662144    0.1000
     16 F16        -2.1332    3.2596   50.8961 F       1  ZINC000271662144   -0.1400
     17 C17        -3.9199    3.5790   52.4193 C.ar    1  ZINC000271662144   -0.1500
     18 C18        -5.2672    3.4839   52.7121 C.ar    1  ZINC000271662144   -0.0700
     19 C19        -8.4560    0.5028   54.8888 C.ar    1  ZINC000271662144   -0.1100
     20 C20        -7.7669    1.0976   55.9288 C.ar    1  ZINC000271662144   -0.0400
     21 C21        -7.9854    0.6829   57.2294 C.ar    1  ZINC000271662144   -0.1400
     22 C22        -8.8933   -0.3262   57.4898 C.ar    1  ZINC000271662144   -0.0200
     23 C23        -9.5832   -0.9207   56.4496 C.ar    1  ZINC000271662144   -0.6800
     24 S24       -10.7402   -2.2076   56.7814 S.o2    1  ZINC000271662144    2.7000
     25 N25       -10.4427   -2.7500   58.3176 N.am    1  ZINC000271662144   -1.2500
     26 O26       -12.0224   -1.5960   56.8130 O.2     1  ZINC000271662144   -0.9600
     27 O27       -10.4111   -3.2782   55.9070 O.2     1  ZINC000271662144   -0.9600
     28 C28        -9.3680   -0.5032   55.1498 C.ar    1  ZINC000271662144   -0.0100
     29 H29        -6.9658    0.4066   51.8059 H       1  ZINC000271662144    0.0600
     30 H30        -6.2132    0.1687   53.4014 H       1  ZINC000271662144    0.0700
     31 H31        -7.4660   -0.9599   52.8310 H       1  ZINC000271662144    0.0600
     32 H32        -8.4146    2.9362   53.9941 H       1  ZINC000271662144    0.3500
     33 H33        -9.3118    4.1682   52.2677 H       1  ZINC000271662144    0.1100
     34 H34        -7.7498    4.9384   52.6349 H       1  ZINC000271662144    0.1200
     35 H35        -6.3605    2.1464   49.8144 H       1  ZINC000271662144    0.1300
     36 H36        -3.9623    2.3215   49.2859 H       1  ZINC000271662144    0.1400
     37 H37        -3.2350    3.9809   53.1511 H       1  ZINC000271662144    0.1400
     38 H38        -5.6346    3.8090   53.6743 H       1  ZINC000271662144    0.1300
     39 H39        -7.0575    1.8861   55.7254 H       1  ZINC000271662144    0.1400
     40 H40        -7.4465    1.1472   58.0421 H       1  ZINC000271662144    0.1400
     41 H41        -9.0634   -0.6507   58.5058 H       1  ZINC000271662144    0.1400
     42 H42       -10.9799   -3.4659   58.6915 H       1  ZINC000271662144    0.4200
     43 H43        -9.7314   -2.3519   58.8432 H       1  ZINC000271662144    0.4200
     44 H44        -9.9069   -0.9675   54.3371 H       1  ZINC000271662144    0.1400
@<TRIPOS>BOND
     1     1     2    1
     2     1    29    1
     3     1    30    1
     4     1    31    1
     5     2     3    1
     6     2     4    1
     7     2    19    1
     8     4     5    1
     9     4    32    1
    10     5     6    1
    11     5     7    1
    12     5    12    1
    13     7     8    1
    14     7    33    1
    15     7    34    1
    16     8     9    1
    17     8    10    1
    18     8    11    1
    19    12    18   ar
    20    12    13   ar
    21    13    14   ar
    22    13    35    1
    23    14    15   ar
    24    14    36    1
    25    15    16    1
    26    15    17   ar
    27    17    18   ar
    28    17    37    1
    29    18    38    1
    30    19    28   ar
    31    19    20   ar
    32    20    21   ar
    33    20    39    1
    34    21    22   ar
    35    21    40    1
    36    22    23   ar
    37    22    41    1
    38    23    24    1
    39    23    28   ar
    40    24    25   am
    41    24    26    2
    42    24    27    2
    43    25    42    1
    44    25    43    1
    45    28    44    1
@<TRIPOS>SUBSTRUCTURE
     1 ZINC000271662144        1 TEMP              0 ****  ****    0 ROOT


##########                                Name:    ZINC000435292384
##########                DOCK_Rotatable_Bonds:                   6
##########                         Heavy_Atoms:                  22
##########                    Molecular_Weight:             326.503
##########                DOCK_Rotatable_Bonds:                   6
##########                       Formal_Charge:         -0.00999993
##########                     HBond_Acceptors:                   5
##########                        HBond_Donors:                   0
##########                         Heavy_Atoms:                  22
##########                          Grid_Score:          -27.699789
##########                     Grid_vdw_energy:          -27.931089
##########                      Grid_es_energy:            0.231301
##########           Internal_energy_repulsive:           21.039600

@<TRIPOS>MOLECULE
ZINC000435292384
 52 53 1 0 0
SMALL
USER_CHARGES


@<TRIPOS>ATOM
      1 C1         -8.7520    0.4003   64.1527 C.3     1  ZINC000435292384   -0.1500
      2 C2         -8.4694   -0.2245   62.7851 C.3     1  ZINC000435292384   -0.1200
      3 C3         -8.5605    0.8536   61.7032 C.3     1  ZINC000435292384   -0.1400
      4 C4         -8.1805    0.2508   60.3492 C.3     1  ZINC000435292384    0.1600
      5 H5         -7.2203   -0.2580   60.4348 H       1  ZINC000435292384    0.0900
      6 C6         -8.0760    1.3651   59.3061 C.3     1  ZINC000435292384   -0.1700
      7 N7         -9.2072   -0.7095   59.9368 N.am    1  ZINC000435292384   -0.6100
      8 C8        -10.6517   -0.4823   60.0622 C.3     1  ZINC000435292384    0.1200
      9 C9        -11.3147   -1.5216   59.1312 C.3     1  ZINC000435292384   -0.1300
     10 H10       -11.4876   -1.1029   58.1398 H       1  ZINC000435292384    0.1100
     11 C11       -12.5990   -2.0377   59.7273 C.2     1  ZINC000435292384    0.5200
     12 O12       -12.7418   -2.0624   60.9313 O.2     1  ZINC000435292384   -0.5200
     13 N13       -13.5887   -2.4721   58.9222 N.am    1  ZINC000435292384   -0.6000
     14 C14       -14.8339   -2.9714   59.5378 C.3     1  ZINC000435292384    0.1000
     15 C15       -16.0877   -2.4771   58.7939 C.3     1  ZINC000435292384   -0.1300
     16 C16       -15.9158   -1.0334   58.3906 C.3     1  ZINC000435292384   -0.1100
     17 C17       -15.3245   -0.9678   56.9858 C.3     1  ZINC000435292384   -0.1200
     18 C18       -13.8571   -1.0601   56.9411 C.3     1  ZINC000435292384   -0.0700
     19 H19       -13.4268   -0.2615   57.5456 H       1  ZINC000435292384    0.0900
     20 S20       -13.2963   -0.8827   55.2251 S.3     1  ZINC000435292384   -0.2500
     21 C21       -11.5699   -0.3583   55.4121 C.3     1  ZINC000435292384   -0.1200
     22 C22       -13.3893   -2.4243   57.4910 C.3     1  ZINC000435292384    0.1400
     23 C23       -10.2402   -2.6325   59.0830 C.3     1  ZINC000435292384   -0.1400
     24 C24        -8.9473   -1.9095   59.3897 C.2     1  ZINC000435292384    0.5200
     25 O25        -7.8376   -2.3513   59.1793 O.2     1  ZINC000435292384   -0.5200
     26 H26        -8.6871   -0.3677   64.9235 H       1  ZINC000435292384    0.0500
     27 H27        -8.0180    1.1804   64.3545 H       1  ZINC000435292384    0.0500
     28 H28        -9.7523    0.8334   64.1547 H       1  ZINC000435292384    0.0500
     29 H29        -7.4691   -0.6576   62.7831 H       1  ZINC000435292384    0.0600
     30 H30        -9.2035   -1.0047   62.5833 H       1  ZINC000435292384    0.0600
     31 H31        -9.5798    1.2368   61.6570 H       1  ZINC000435292384    0.0800
     32 H32        -7.8768    1.6678   61.9431 H       1  ZINC000435292384    0.0800
     33 H33        -9.0362    1.8740   59.2207 H       1  ZINC000435292384    0.0700
     34 H34        -7.3122    2.0797   59.6130 H       1  ZINC000435292384    0.0700
     35 H35        -7.8054    0.9358   58.3416 H       1  ZINC000435292384    0.0600
     36 H36       -10.9704   -0.6411   61.0924 H       1  ZINC000435292384    0.0900
     37 H37       -10.9040    0.5280   59.7401 H       1  ZINC000435292384    0.0800
     38 H38       -14.8221   -4.0613   59.5262 H       1  ZINC000435292384    0.0700
     39 H39       -14.8787   -2.6306   60.5722 H       1  ZINC000435292384    0.0900
     40 H40       -16.2427   -3.0854   57.9027 H       1  ZINC000435292384    0.0700
     41 H41       -16.9554   -2.5691   59.4473 H       1  ZINC000435292384    0.0800
     42 H42       -16.8852   -0.5350   58.4008 H       1  ZINC000435292384    0.0700
     43 H43       -15.2442   -0.5376   59.0914 H       1  ZINC000435292384    0.0600
     44 H44       -15.7406   -1.7850   56.3966 H       1  ZINC000435292384    0.0800
     45 H45       -15.6261   -0.0263   56.5268 H       1  ZINC000435292384    0.0600
     46 H46       -11.5332    0.5809   55.9640 H       1  ZINC000435292384    0.0800
     47 H47       -11.0151   -1.1221   55.9573 H       1  ZINC000435292384    0.0800
     48 H48       -11.1238   -0.2187   54.4273 H       1  ZINC000435292384    0.1000
     49 H49       -12.3309   -2.5614   57.2696 H       1  ZINC000435292384    0.0900
     50 H50       -13.9643   -3.2218   57.0204 H       1  ZINC000435292384    0.0900
     51 H51       -10.4442   -3.3935   59.8364 H       1  ZINC000435292384    0.1100
     52 H52       -10.1978   -3.0794   58.0898 H       1  ZINC000435292384    0.1100
@<TRIPOS>BOND
     1     1     2    1
     2     1    26    1
     3     1    27    1
     4     1    28    1
     5     2     3    1
     6     2    29    1
     7     2    30    1
     8     3     4    1
     9     3    31    1
    10     3    32    1
    11     4     5    1
    12     4     6    1
    13     4     7    1
    14     6    33    1
    15     6    34    1
    16     6    35    1
    17     7    24   am
    18     7     8    1
    19     8     9    1
    20     8    36    1
    21     8    37    1
    22     9    10    1
    23     9    11    1
    24     9    23    1
    25    11    12    2
    26    11    13   am
    27    13    22    1
    28    13    14    1
    29    14    15    1
    30    14    38    1
    31    14    39    1
    32    15    16    1
    33    15    40    1
    34    15    41    1
    35    16    17    1
    36    16    42    1
    37    16    43    1
    38    17    18    1
    39    17    44    1
    40    17    45    1
    41    18    19    1
    42    18    20    1
    43    18    22    1
    44    20    21    1
    45    21    46    1
    46    21    47    1
    47    21    48    1
    48    22    49    1
    49    22    50    1
    50    23    24    1
    51    23    51    1
    52    23    52    1
    53    24    25    2
@<TRIPOS>SUBSTRUCTURE
     1 ZINC000435292384        1 TEMP              0 ****  ****    0 ROOT


##########                                Name:    ZINC000826324849
##########                DOCK_Rotatable_Bonds:                   4
##########                         Heavy_Atoms:                  27
##########                    Molecular_Weight:             395.374
##########                DOCK_Rotatable_Bonds:                   4
##########                       Formal_Charge:           0.0400001
##########                     HBond_Acceptors:                  13
##########                        HBond_Donors:                   1
##########                         Heavy_Atoms:                  27
##########                          Grid_Score:          -27.687258
##########                     Grid_vdw_energy:          -25.808847
##########                      Grid_es_energy:           -1.878410
##########           Internal_energy_repulsive:          118.395714

@<TRIPOS>MOLECULE
ZINC000826324849
 41 44 1 0 0
SMALL
USER_CHARGES


@<TRIPOS>ATOM
      1 C1         -7.0175    0.1300   51.3005 C.3     1  ZINC000826324849   -0.0600
      2 C2         -7.1288    1.0752   52.4690 C.2     1  ZINC000826324849    0.2000
      3 N3         -8.2263    1.4000   53.1089 N.2     1  ZINC000826324849   -0.4600
      4 C4         -7.8447    2.2631   54.0672 C.2     1  ZINC000826324849    0.1600
      5 C5         -8.7435    2.9297   55.0765 C.3     1  ZINC000826324849    0.2200
      6 H6         -8.2746    3.8451   55.4377 H       1  ZINC000826324849    0.1300
      7 C7        -10.0919    3.2620   54.4273 C.3     1  ZINC000826324849    0.0600
      8 O8        -10.9982    3.7210   55.4330 O.3     1  ZINC000826324849   -0.3600
      9 C9        -11.2963    2.7504   56.4394 C.3     1  ZINC000826324849    0.0400
     10 C10       -10.0096    2.3920   57.1917 C.3     1  ZINC000826324849    0.0800
     11 N11        -8.9835    2.0171   56.2055 N.am    1  ZINC000826324849   -1.0100
     12 S12        -8.1257    0.6091   56.3611 S.o2    1  ZINC000826324849    2.7100
     13 O13        -7.3438    0.4832   55.1813 O.2     1  ZINC000826324849   -0.9300
     14 O14        -7.5656    0.6227   57.6670 O.2     1  ZINC000826324849   -0.9300
     15 C15        -9.2875   -0.7153   56.3318 C.ar    1  ZINC000826324849   -0.5800
     16 C16        -9.8520   -1.1131   55.1369 C.ar    1  ZINC000826324849   -0.0400
     17 C17       -10.7645   -2.1527   55.1110 C.ar    1  ZINC000826324849   -0.0800
     18 C18       -11.1173   -2.7994   56.2808 C.ar    1  ZINC000826324849   -0.1100
     19 C19       -10.5584   -2.4097   57.4842 C.ar    1  ZINC000826324849    0.1300
     20 F20       -10.9029   -3.0420   58.6273 F       1  ZINC000826324849   -0.1100
     21 C21        -9.6333   -1.3660   57.5139 C.ar    1  ZINC000826324849    0.0500
     22 C22        -9.0288   -0.9426   58.8018 C.2     1  ZINC000826324849    0.1800
     23 N23        -7.9381   -1.4313   59.3580 N.2     1  ZINC000826324849   -0.2600
     24 N24        -7.7445   -0.8018   60.4658 N.pl3   1  ZINC000826324849   -0.2200
     25 N25        -8.6775    0.0699   60.6290 N.2     1  ZINC000826324849   -0.0200
     26 N26        -9.4825    0.0151   59.6227 N.2     1  ZINC000826324849   -0.2600
     27 N27        -6.5585    2.4163   53.9632 N.2     1  ZINC000826324849   -0.3800
     28 O28        -6.1270    1.7380   53.0548 O.3     1  ZINC000826324849    0.0900
     29 H29        -5.9755    0.0591   50.9885 H       1  ZINC000826324849    0.1000
     30 H30        -7.3763   -0.8561   51.5954 H       1  ZINC000826324849    0.1100
     31 H31        -7.6200    0.5033   50.4726 H       1  ZINC000826324849    0.1100
     32 H32        -9.9531    4.0420   53.6787 H       1  ZINC000826324849    0.1200
     33 H33       -10.4972    2.3686   53.9522 H       1  ZINC000826324849    0.0600
     34 H34       -12.0241    3.1624   57.1385 H       1  ZINC000826324849    0.1200
     35 H35       -11.7060    1.8550   55.9717 H       1  ZINC000826324849    0.0600
     36 H36        -9.6684    3.2530   57.7664 H       1  ZINC000826324849    0.0900
     37 H37       -10.1979    1.5536   57.8623 H       1  ZINC000826324849    0.1100
     38 H38        -9.5809   -0.6114   54.2197 H       1  ZINC000826324849    0.1400
     39 H39       -11.2032   -2.4600   54.1732 H       1  ZINC000826324849    0.1500
     40 H40       -11.8308   -3.6099   56.2549 H       1  ZINC000826324849    0.1500
     41 H41        -7.0111   -0.9604   61.0804 H       1  ZINC000826324849    0.4800
@<TRIPOS>BOND
     1     1     2    1
     2     1    29    1
     3     1    30    1
     4     1    31    1
     5     2    28    1
     6     2     3    2
     7     3     4    1
     8     4     5    1
     9     4    27    2
    10     5     6    1
    11     5    11    1
    12     5     7    1
    13     7     8    1
    14     7    32    1
    15     7    33    1
    16     8     9    1
    17     9    10    1
    18     9    34    1
    19     9    35    1
    20    10    11    1
    21    10    36    1
    22    10    37    1
    23    11    12   am
    24    12    13    2
    25    12    14    2
    26    12    15    1
    27    15    21   ar
    28    15    16   ar
    29    16    17   ar
    30    16    38    1
    31    17    18   ar
    32    17    39    1
    33    18    19   ar
    34    18    40    1
    35    19    20    1
    36    19    21   ar
    37    21    22    1
    38    22    26    1
    39    22    23    2
    40    23    24    1
    41    24    25    1
    42    24    41    1
    43    25    26    2
    44    27    28    1
@<TRIPOS>SUBSTRUCTURE
     1 ZINC000826324849        1 TEMP              0 ****  ****    0 ROOT


##########                                Name:    ZINC000444542200
##########                DOCK_Rotatable_Bonds:                   8
##########                         Heavy_Atoms:                  28
##########                    Molecular_Weight:             404.337
##########                DOCK_Rotatable_Bonds:                   8
##########                       Formal_Charge:           0.0200001
##########                     HBond_Acceptors:                  10
##########                        HBond_Donors:                   1
##########                         Heavy_Atoms:                  28
##########                          Grid_Score:          -27.641403
##########                     Grid_vdw_energy:          -27.187107
##########                      Grid_es_energy:           -0.454296
##########           Internal_energy_repulsive:           19.730198

@<TRIPOS>MOLECULE
ZINC000444542200
 45 46 1 0 0
SMALL
USER_CHARGES


@<TRIPOS>ATOM
      1 C1         -8.3940   -1.1492   60.6078 C.3     1  ZINC000444542200    0.0300
      2 O2         -9.7460   -1.5112   60.8964 O.3     1  ZINC000444542200   -0.3100
      3 C3        -10.5768   -1.6892   59.8358 C.ar    1  ZINC000444542200    0.1800
      4 C4        -10.0967   -1.5299   58.5448 C.ar    1  ZINC000444542200   -0.1700
      5 C5        -10.9453   -1.7122   57.4616 C.ar    1  ZINC000444542200    0.2300
      6 N6        -10.4612   -1.5521   56.1585 N.am    1  ZINC000444542200   -0.5800
      7 C7        -10.2324   -2.7262   55.3126 C.3     1  ZINC000444542200    0.0700
      8 C8        -10.2054   -0.3178   55.6815 C.2     1  ZINC000444542200    0.7100
      9 O9        -10.3955    0.6567   56.3834 O.2     1  ZINC000444542200   -0.5500
     10 N10        -9.7391   -0.1637   54.4264 N.am    1  ZINC000444542200   -0.7300
     11 C11        -9.4594    1.1780   53.9086 C.3     1  ZINC000444542200    0.1700
     12 H12        -9.1677    1.8313   54.7308 H       1  ZINC000444542200    0.1500
     13 C13        -8.3391    1.1049   52.9032 C.ar    1  ZINC000444542200   -0.1300
     14 C14        -8.4100    0.2087   51.8535 C.ar    1  ZINC000444542200   -0.0800
     15 C15        -7.3830    0.1403   50.9304 C.ar    1  ZINC000444542200   -0.0900
     16 C16        -6.2833    0.9682   51.0553 C.ar    1  ZINC000444542200   -0.1100
     17 C17        -6.2093    1.8668   52.1055 C.ar    1  ZINC000444542200    0.0800
     18 F18        -5.1347    2.6762   52.2283 F       1  ZINC000444542200   -0.1200
     19 C19        -7.2418    1.9392   53.0280 C.ar    1  ZINC000444542200    0.1000
     20 F20        -7.1718    2.8155   54.0539 F       1  ZINC000444542200   -0.1100
     21 C21       -10.7143    1.7361   53.2342 C.3     1  ZINC000444542200    0.4400
     22 F22       -11.5595    0.6807   52.8752 F       1  ZINC000444542200   -0.1600
     23 F23       -11.3817    2.5866   54.1221 F       1  ZINC000444542200   -0.1700
     24 F24       -10.3491    2.4514   52.0887 F       1  ZINC000444542200   -0.1800
     25 C25       -12.2742   -2.0539   57.6717 C.ar    1  ZINC000444542200   -0.1900
     26 C26       -12.7530   -2.2127   58.9631 C.ar    1  ZINC000444542200    0.1800
     27 O27       -14.0540   -2.5472   59.1689 O.3     1  ZINC000444542200   -0.3100
     28 C28       -14.8402   -2.8372   58.0115 C.3     1  ZINC000444542200    0.0300
     29 C29       -11.9033   -2.0357   60.0448 C.ar    1  ZINC000444542200   -0.2900
     30 H30        -7.9313   -1.9272   60.0006 H       1  ZINC000444542200    0.0600
     31 H31        -8.3790   -0.2056   60.0624 H       1  ZINC000444542200    0.0600
     32 H32        -7.8405   -1.0387   61.5403 H       1  ZINC000444542200    0.1000
     33 H33        -9.0627   -1.2639   58.3822 H       1  ZINC000444542200    0.1300
     34 H34       -11.1397   -2.9530   54.7527 H       1  ZINC000444542200    0.0700
     35 H35        -9.4184   -2.5202   54.6176 H       1  ZINC000444542200    0.0700
     36 H36        -9.9688   -3.5789   55.9384 H       1  ZINC000444542200    0.0900
     37 H37        -9.5886   -0.9409   53.8660 H       1  ZINC000444542200    0.4100
     38 H38        -9.2684   -0.4392   51.7543 H       1  ZINC000444542200    0.1400
     39 H39        -7.4401   -0.5608   50.1110 H       1  ZINC000444542200    0.1500
     40 H40        -5.4815    0.9136   50.3338 H       1  ZINC000444542200    0.1500
     41 H41       -12.9351   -2.1954   56.8292 H       1  ZINC000444542200    0.1400
     42 H42       -14.4022   -3.6800   57.4766 H       1  ZINC000444542200    0.0600
     43 H43       -15.8562   -3.0887   58.3160 H       1  ZINC000444542200    0.1000
     44 H44       -14.8620   -1.9644   57.3589 H       1  ZINC000444542200    0.0600
     45 H45       -12.2768   -2.1596   61.0505 H       1  ZINC000444542200    0.1400
@<TRIPOS>BOND
     1     1     2    1
     2     1    30    1
     3     1    31    1
     4     1    32    1
     5     2     3    1
     6     3    29   ar
     7     3     4   ar
     8     4     5   ar
     9     4    33    1
    10     5     6    1
    11     5    25   ar
    12     6     7    1
    13     6     8   am
    14     7    34    1
    15     7    35    1
    16     7    36    1
    17     8     9    2
    18     8    10   am
    19    10    11    1
    20    10    37    1
    21    11    12    1
    22    11    13    1
    23    11    21    1
    24    13    19   ar
    25    13    14   ar
    26    14    15   ar
    27    14    38    1
    28    15    16   ar
    29    15    39    1
    30    16    17   ar
    31    16    40    1
    32    17    18    1
    33    17    19   ar
    34    19    20    1
    35    21    22    1
    36    21    23    1
    37    21    24    1
    38    25    26   ar
    39    25    41    1
    40    26    27    1
    41    26    29   ar
    42    27    28    1
    43    28    42    1
    44    28    43    1
    45    28    44    1
    46    29    45    1
@<TRIPOS>SUBSTRUCTURE
     1 ZINC000444542200        1 TEMP              0 ****  ****    0 ROOT


##########                                Name:    ZINC000053543817
##########                DOCK_Rotatable_Bonds:                   7
##########                         Heavy_Atoms:                  25
##########                    Molecular_Weight:             350.458
##########                DOCK_Rotatable_Bonds:                   7
##########                       Formal_Charge:           0.0199998
##########                     HBond_Acceptors:                   6
##########                        HBond_Donors:                   2
##########                         Heavy_Atoms:                  25
##########                          Grid_Score:          -27.588152
##########                     Grid_vdw_energy:          -26.565796
##########                      Grid_es_energy:           -1.022356
##########           Internal_energy_repulsive:           25.818222

@<TRIPOS>MOLECULE
ZINC000053543817
 55 56 1 0 0
SMALL
USER_CHARGES


@<TRIPOS>ATOM
      1 C1        -12.5883    1.7562   53.2437 C.3     1  ZINC000053543817   -0.0700
      2 C2        -11.1034    1.8085   52.9918 C.2     1  ZINC000053543817   -0.0200
      3 C3        -10.1407    1.6233   53.9167 C.2     1  ZINC000053543817   -0.1800
      4 C4         -8.9100    1.7587   53.2496 C.2     1  ZINC000053543817   -0.1900
      5 C5         -9.1854    2.0181   51.9549 C.2     1  ZINC000053543817    0.0000
      6 C6         -8.1310    2.2305   50.8960 C.3     1  ZINC000053543817   -0.0300
      7 C7         -6.7953    1.6978   51.4284 C.3     1  ZINC000053543817   -0.0500
      8 C8         -6.8499    0.1706   51.5053 C.3     1  ZINC000053543817   -0.1500
      9 C9         -5.6662    2.1207   50.4864 C.3     1  ZINC000053543817   -0.1400
     10 C10        -6.5356    2.2699   52.8247 C.3     1  ZINC000053543817   -0.1200
     11 C11        -7.5211    1.6475   53.8221 C.3     1  ZINC000053543817    0.2200
     12 H12        -7.2711    0.5982   53.9787 H       1  ZINC000053543817    0.1000
     13 N13        -7.4532    2.3663   55.0967 N.am    1  ZINC000053543817   -0.7100
     14 C14        -7.6021    1.6967   56.2569 C.2     1  ZINC000053543817    0.5100
     15 O15        -7.7939    0.4992   56.2455 O.2     1  ZINC000053543817   -0.5300
     16 C16        -7.5305    2.4360   57.5681 C.3     1  ZINC000053543817    0.1400
     17 H17        -8.0175    3.4057   57.4657 H       1  ZINC000053543817    0.1200
     18 C18        -6.0656    2.6399   57.9593 C.3     1  ZINC000053543817   -0.1600
     19 N19        -8.2091    1.6560   58.6061 N.am    1  ZINC000053543817   -0.7000
     20 C20        -9.5222    1.3756   58.4881 C.2     1  ZINC000053543817    0.6600
     21 O21       -10.1434    1.7711   57.5216 O.2     1  ZINC000053543817   -0.5700
     22 O22       -10.1454    0.6575   59.4412 O.3     1  ZINC000053543817   -0.3600
     23 C23        -9.5588   -0.6241   59.7903 C.3     1  ZINC000053543817    0.1400
     24 C24        -8.9588   -1.2682   58.5389 C.3     1  ZINC000053543817   -0.1800
     25 C25        -8.4593   -0.4147   60.8333 C.3     1  ZINC000053543817   -0.1400
     26 C26       -10.6406   -1.5401   60.3665 C.3     1  ZINC000053543817   -0.1800
     27 O27       -10.5151    2.0423   51.8049 O.3     1  ZINC000053543817   -0.1700
     28 H28       -13.1217    1.9383   52.3107 H       1  ZINC000053543817    0.0800
     29 H29       -12.8569    0.7729   53.6297 H       1  ZINC000053543817    0.0800
     30 H30       -12.8603    2.5195   53.9727 H       1  ZINC000053543817    0.0800
     31 H31       -10.2862    1.4125   54.9658 H       1  ZINC000053543817    0.1400
     32 H32        -8.4066    1.6895   49.9907 H       1  ZINC000053543817    0.0900
     33 H33        -8.0403    3.2945   50.6776 H       1  ZINC000053543817    0.0900
     34 H34        -7.0335   -0.2369   50.5112 H       1  ZINC000053543817    0.0600
     35 H35        -5.9004   -0.2082   51.8837 H       1  ZINC000053543817    0.0600
     36 H36        -7.6545   -0.1308   52.1759 H       1  ZINC000053543817    0.0600
     37 H37        -5.6275    3.2085   50.4310 H       1  ZINC000053543817    0.0600
     38 H38        -4.7166    1.7421   50.8646 H       1  ZINC000053543817    0.0600
     39 H39        -5.8501    1.7125   49.4925 H       1  ZINC000053543817    0.0600
     40 H40        -5.5150    2.0373   53.1288 H       1  ZINC000053543817    0.0800
     41 H41        -6.6718    3.3512   52.8055 H       1  ZINC000053543817    0.0700
     42 H42        -7.3010    3.3243   55.1058 H       1  ZINC000053543817    0.4000
     43 H43        -5.5606    3.2201   57.1870 H       1  ZINC000053543817    0.0800
     44 H44        -6.0137    3.1745   58.9078 H       1  ZINC000053543817    0.0800
     45 H45        -5.5785    1.6701   58.0619 H       1  ZINC000053543817    0.0700
     46 H46        -7.7135    1.3413   59.3782 H       1  ZINC000053543817    0.4200
     47 H47        -8.1882   -0.6157   58.1284 H       1  ZINC000053543817    0.0600
     48 H48        -8.5185   -2.2303   58.8008 H       1  ZINC000053543817    0.0700
     49 H49        -9.7423   -1.4174   57.7958 H       1  ZINC000053543817    0.0900
     50 H50        -8.8868    0.0441   61.7248 H       1  ZINC000053543817    0.0700
     51 H51        -8.0190   -1.3768   61.0953 H       1  ZINC000053543817    0.0800
     52 H52        -7.6886    0.2378   60.4228 H       1  ZINC000053543817    0.0700
     53 H53       -11.4240   -1.6892   59.6234 H       1  ZINC000053543817    0.0900
     54 H54       -10.2003   -2.5021   60.6285 H       1  ZINC000053543817    0.0700
     55 H55       -11.0680   -1.0812   61.2580 H       1  ZINC000053543817    0.0600
@<TRIPOS>BOND
     1     1     2    1
     2     1    28    1
     3     1    29    1
     4     1    30    1
     5     2    27    1
     6     2     3    2
     7     3     4    1
     8     3    31    1
     9     4    11    1
    10     4     5    2
    11     5     6    1
    12     5    27    1
    13     6     7    1
    14     6    32    1
    15     6    33    1
    16     7     8    1
    17     7     9    1
    18     7    10    1
    19     8    34    1
    20     8    35    1
    21     8    36    1
    22     9    37    1
    23     9    38    1
    24     9    39    1
    25    10    11    1
    26    10    40    1
    27    10    41    1
    28    11    12    1
    29    11    13    1
    30    13    14   am
    31    13    42    1
    32    14    15    2
    33    14    16    1
    34    16    17    1
    35    16    18    1
    36    16    19    1
    37    18    43    1
    38    18    44    1
    39    18    45    1
    40    19    20   am
    41    19    46    1
    42    20    21    2
    43    20    22    1
    44    22    23    1
    45    23    24    1
    46    23    25    1
    47    23    26    1
    48    24    47    1
    49    24    48    1
    50    24    49    1
    51    25    50    1
    52    25    51    1
    53    25    52    1
    54    26    53    1
    55    26    54    1
    56    26    55    1
@<TRIPOS>SUBSTRUCTURE
     1 ZINC000053543817        1 TEMP              0 ****  ****    0 ROOT


##########                                Name:    ZINC000800038938
##########                DOCK_Rotatable_Bonds:                   6
##########                         Heavy_Atoms:                  25
##########                    Molecular_Weight:             386.274
##########                DOCK_Rotatable_Bonds:                   6
##########                       Formal_Charge:           0.0200003
##########                     HBond_Acceptors:                   7
##########                        HBond_Donors:                   0
##########                         Heavy_Atoms:                  25
##########                          Grid_Score:          -27.559797
##########                     Grid_vdw_energy:          -27.341547
##########                      Grid_es_energy:           -0.218250
##########           Internal_energy_repulsive:           16.717733

@<TRIPOS>MOLECULE
ZINC000800038938
 46 48 1 0 0
SMALL
USER_CHARGES


@<TRIPOS>ATOM
      1 C1         -4.1978    3.5897   51.8290 C.3     1  ZINC000800038938    0.0300
      2 O2         -5.2610    2.8881   52.4767 O.3     1  ZINC000800038938   -0.3800
      3 C3         -6.0096    2.0361   51.6073 C.3     1  ZINC000800038938    0.0900
      4 H4         -5.3584    1.2726   51.1817 H       1  ZINC000800038938    0.0700
      5 C5         -6.6557    2.8677   50.4801 C.3     1  ZINC000800038938   -0.1400
      6 C6         -8.0359    2.2005   50.2592 C.3     1  ZINC000800038938   -0.1400
      7 C7         -8.4696    1.8276   51.6987 C.3     1  ZINC000800038938    0.0900
      8 H8         -8.8858    2.6963   52.2089 H       1  ZINC000800038938    0.0900
      9 O9         -9.4353    0.7436   51.6738 O.3     1  ZINC000800038938   -0.3500
     10 C10       -10.0342    0.4341   52.8345 C.2     1  ZINC000800038938    0.4500
     11 O11       -10.5892   -0.6314   52.9627 O.2     1  ZINC000800038938   -0.4800
     12 C12       -10.0144    1.4158   53.9778 C.3     1  ZINC000800038938    0.1500
     13 H13        -9.0978    2.0046   53.9447 H       1  ZINC000800038938    0.1200
     14 C14       -11.2408    2.3485   53.8899 C.3     1  ZINC000800038938   -0.1200
     15 C15       -11.6546    2.5193   55.3755 C.3     1  ZINC000800038938   -0.1300
     16 C16       -11.3349    1.1169   55.9506 C.3     1  ZINC000800038938    0.0900
     17 N17       -10.1004    0.6957   55.2566 N.am    1  ZINC000800038938   -0.6000
     18 C18        -9.2063   -0.2007   55.7188 C.2     1  ZINC000800038938    0.5800
     19 O19        -8.2216   -0.4721   55.0598 O.2     1  ZINC000800038938   -0.4900
     20 C20        -9.4232   -0.8536   57.0266 C.ar    1  ZINC000800038938   -0.1100
     21 C21        -9.0032   -0.2273   58.2011 C.ar    1  ZINC000800038938   -0.0700
     22 C22        -9.2090   -0.8428   59.4196 C.ar    1  ZINC000800038938   -0.0400
     23 Cl23       -8.6878   -0.0652   60.8816 Cl      1  ZINC000800038938   -0.0500
     24 C24        -9.8305   -2.0790   59.4783 C.ar    1  ZINC000800038938   -0.0700
     25 C25       -10.2488   -2.7055   58.3186 C.ar    1  ZINC000800038938   -0.1000
     26 C26       -10.0549   -2.0982   57.0934 C.ar    1  ZINC000800038938    0.0100
     27 Cl27      -10.5807   -2.8863   55.6387 Cl      1  ZINC000800038938   -0.0300
     28 C28        -7.1621    1.3738   52.3824 C.3     1  ZINC000800038938   -0.1200
     29 H29        -3.6786    4.2141   52.5561 H       1  ZINC000800038938    0.0900
     30 H30        -3.4977    2.8729   51.4000 H       1  ZINC000800038938    0.0400
     31 H31        -4.6062    4.2174   51.0369 H       1  ZINC000800038938    0.0400
     32 H32        -6.7789    3.9045   50.7935 H       1  ZINC000800038938    0.0800
     33 H33        -6.0551    2.8114   49.5722 H       1  ZINC000800038938    0.0800
     34 H34        -8.7388    2.9050   49.8143 H       1  ZINC000800038938    0.0800
     35 H35        -7.9391    1.3078   49.6415 H       1  ZINC000800038938    0.0800
     36 H36       -10.9648    3.3085   53.4537 H       1  ZINC000800038938    0.1000
     37 H37       -12.0415    1.8798   53.3179 H       1  ZINC000800038938    0.0900
     38 H38       -11.0541    3.2875   55.8626 H       1  ZINC000800038938    0.0900
     39 H39       -12.7178    2.7437   55.4616 H       1  ZINC000800038938    0.1000
     40 H40       -11.1625    1.1777   57.0251 H       1  ZINC000800038938    0.0900
     41 H41       -12.1481    0.4238   55.7346 H       1  ZINC000800038938    0.0800
     42 H42        -8.5181    0.7366   58.1568 H       1  ZINC000800038938    0.1500
     43 H43        -9.9890   -2.5561   60.4342 H       1  ZINC000800038938    0.1500
     44 H44       -10.7326   -3.6698   58.3715 H       1  ZINC000800038938    0.1500
     45 H45        -7.0719    0.2887   52.3326 H       1  ZINC000800038938    0.0900
     46 H46        -7.1506    1.7025   53.4216 H       1  ZINC000800038938    0.0900
@<TRIPOS>BOND
     1     1     2    1
     2     1    29    1
     3     1    30    1
     4     1    31    1
     5     2     3    1
     6     3     4    1
     7     3    28    1
     8     3     5    1
     9     5     6    1
    10     5    32    1
    11     5    33    1
    12     6     7    1
    13     6    34    1
    14     6    35    1
    15     7     8    1
    16     7     9    1
    17     7    28    1
    18     9    10    1
    19    10    11    2
    20    10    12    1
    21    12    13    1
    22    12    17    1
    23    12    14    1
    24    14    15    1
    25    14    36    1
    26    14    37    1
    27    15    16    1
    28    15    38    1
    29    15    39    1
    30    16    17    1
    31    16    40    1
    32    16    41    1
    33    17    18   am
    34    18    19    2
    35    18    20    1
    36    20    26   ar
    37    20    21   ar
    38    21    22   ar
    39    21    42    1
    40    22    23    1
    41    22    24   ar
    42    24    25   ar
    43    24    43    1
    44    25    26   ar
    45    25    44    1
    46    26    27    1
    47    28    45    1
    48    28    46    1
@<TRIPOS>SUBSTRUCTURE
     1 ZINC000800038938        1 TEMP              0 ****  ****    0 ROOT


##########                                Name:    ZINC000462219577
##########                DOCK_Rotatable_Bonds:                   8
##########                         Heavy_Atoms:                  31
##########                    Molecular_Weight:             418.539
##########                DOCK_Rotatable_Bonds:                   8
##########                       Formal_Charge:         -0.00999914
##########                     HBond_Acceptors:                   6
##########                        HBond_Donors:                   2
##########                         Heavy_Atoms:                  31
##########                          Grid_Score:          -27.529409
##########                     Grid_vdw_energy:          -27.396931
##########                      Grid_es_energy:           -0.132479
##########           Internal_energy_repulsive:           21.842684

@<TRIPOS>MOLECULE
ZINC000462219577
 61 64 1 0 0
SMALL
USER_CHARGES


@<TRIPOS>ATOM
      1 C1         -7.6783    3.0166   58.8650 C.3     1  ZINC000462219577   -0.0700
      2 C2         -8.9674    2.2359   58.8727 C.2     1  ZINC000462219577    0.0800
      3 N3        -10.1300    2.6709   58.4582 N.2     1  ZINC000462219577   -0.2900
      4 N4        -11.0688    1.6459   58.6327 N.pl3   1  ZINC000462219577   -0.3200
      5 C5        -12.4316    1.7116   58.3108 C.ar    1  ZINC000462219577    0.1500
      6 C6        -12.8978    1.1338   57.1377 C.ar    1  ZINC000462219577   -0.1100
      7 C7        -14.2411    1.2003   56.8232 C.ar    1  ZINC000462219577   -0.1000
      8 C8        -15.1212    1.8420   57.6753 C.ar    1  ZINC000462219577   -0.1200
      9 C9        -14.6597    2.4188   58.8442 C.ar    1  ZINC000462219577   -0.1000
     10 C10       -13.3186    2.3498   59.1672 C.ar    1  ZINC000462219577   -0.1300
     11 C11       -10.4274    0.5816   59.1664 C.2     1  ZINC000462219577    0.0900
     12 C12       -11.0493   -0.7444   59.5212 C.3     1  ZINC000462219577   -0.0800
     13 C13       -10.4138   -1.8486   58.6739 C.3     1  ZINC000462219577    0.1700
     14 H14       -11.1868   -2.5408   58.3403 H       1  ZINC000462219577    0.1000
     15 C15        -9.3803   -2.6037   59.5123 C.3     1  ZINC000462219577   -0.1600
     16 N16        -9.7559   -1.2525   57.5086 N.am    1  ZINC000462219577   -0.7400
     17 C17       -10.2807   -1.4215   56.2788 C.2     1  ZINC000462219577    0.7100
     18 O18       -11.3008   -2.0676   56.1366 O.2     1  ZINC000462219577   -0.5800
     19 N19        -9.6745   -0.8745   55.2064 N.am    1  ZINC000462219577   -0.7400
     20 C20       -10.2458   -1.0567   53.8699 C.3     1  ZINC000462219577    0.1600
     21 H21       -10.4744   -2.1107   53.7117 H       1  ZINC000462219577    0.1000
     22 C22       -11.5289   -0.2296   53.7438 C.3     1  ZINC000462219577   -0.1700
     23 C23       -11.1861    1.2552   53.8914 C.3     1  ZINC000462219577    0.0700
     24 O24       -10.2247    1.6215   52.8998 O.3     1  ZINC000462219577   -0.3700
     25 C25        -8.9868    0.9140   52.9979 C.3     1  ZINC000462219577    0.1400
     26 H26        -8.5441    1.0903   53.9782 H       1  ZINC000462219577    0.0600
     27 C27        -8.0446    1.3990   51.9263 C.ar    1  ZINC000462219577   -0.0900
     28 C28        -6.8686    0.7157   51.6790 C.ar    1  ZINC000462219577   -0.0900
     29 C29        -6.0044    1.1606   50.6962 C.ar    1  ZINC000462219577   -0.1200
     30 C30        -6.3162    2.2884   49.9603 C.ar    1  ZINC000462219577   -0.1200
     31 C31        -7.4926    2.9712   50.2070 C.ar    1  ZINC000462219577   -0.1200
     32 C32        -8.3589    2.5239   51.1870 C.ar    1  ZINC000462219577   -0.1100
     33 C33        -9.2403   -0.5865   52.8143 C.3     1  ZINC000462219577   -0.1500
     34 C34        -9.1260    0.9192   59.3186 C.2     1  ZINC000462219577   -0.2600
     35 H35        -7.1643    2.8598   57.9167 H       1  ZINC000462219577    0.0800
     36 H36        -7.8953    4.0775   58.9896 H       1  ZINC000462219577    0.0700
     37 H37        -7.0431    2.6772   59.6830 H       1  ZINC000462219577    0.0800
     38 H38       -12.2109    0.6331   56.4715 H       1  ZINC000462219577    0.1300
     39 H39       -14.6045    0.7510   55.9108 H       1  ZINC000462219577    0.1300
     40 H40       -16.1710    1.8930   57.4270 H       1  ZINC000462219577    0.1300
     41 H41       -15.3492    2.9199   59.5073 H       1  ZINC000462219577    0.1300
     42 H42       -12.9587    2.8005   60.0804 H       1  ZINC000462219577    0.1300
     43 H43       -10.8802   -0.9540   60.5774 H       1  ZINC000462219577    0.0900
     44 H44       -12.1209   -0.7073   59.3252 H       1  ZINC000462219577    0.1100
     45 H45        -8.6073   -1.9115   59.8460 H       1  ZINC000462219577    0.0600
     46 H46        -9.8698   -3.0473   60.3792 H       1  ZINC000462219577    0.0700
     47 H47        -8.9276   -3.3904   58.9086 H       1  ZINC000462219577    0.0700
     48 H48        -8.9427   -0.7361   57.6222 H       1  ZINC000462219577    0.3900
     49 H49        -8.8600   -0.3600   55.3198 H       1  ZINC000462219577    0.3900
     50 H50       -11.9802   -0.4040   52.7671 H       1  ZINC000462219577    0.0800
     51 H51       -12.2288   -0.5214   54.5269 H       1  ZINC000462219577    0.0800
     52 H52       -12.0891    1.8514   53.7600 H       1  ZINC000462219577    0.1000
     53 H53       -10.7722    1.4359   54.8834 H       1  ZINC000462219577    0.0500
     54 H54        -6.6250   -0.1655   52.2539 H       1  ZINC000462219577    0.1300
     55 H55        -5.0854    0.6271   50.5033 H       1  ZINC000462219577    0.1200
     56 H56        -5.6407    2.6364   49.1929 H       1  ZINC000462219577    0.1200
     57 H57        -7.7360    3.8526   49.6323 H       1  ZINC000462219577    0.1200
     58 H58        -9.2780    3.0574   51.3798 H       1  ZINC000462219577    0.1200
     59 H59        -8.3037   -1.1313   52.9328 H       1  ZINC000462219577    0.0800
     60 H60        -9.6453   -0.7684   51.8188 H       1  ZINC000462219577    0.0900
     61 H61        -8.3483    0.2864   59.7202 H       1  ZINC000462219577    0.1500
@<TRIPOS>BOND
     1     1     2    1
     2     1    35    1
     3     1    36    1
     4     1    37    1
     5     2    34    1
     6     2     3    2
     7     3     4    1
     8     4     5    1
     9     4    11    1
    10     5    10   ar
    11     5     6   ar
    12     6     7   ar
    13     6    38    1
    14     7     8   ar
    15     7    39    1
    16     8     9   ar
    17     8    40    1
    18     9    10   ar
    19     9    41    1
    20    10    42    1
    21    11    12    1
    22    11    34    2
    23    12    13    1
    24    12    43    1
    25    12    44    1
    26    13    14    1
    27    13    15    1
    28    13    16    1
    29    15    45    1
    30    15    46    1
    31    15    47    1
    32    16    17   am
    33    16    48    1
    34    17    18    2
    35    17    19   am
    36    19    20    1
    37    19    49    1
    38    20    21    1
    39    20    33    1
    40    20    22    1
    41    22    23    1
    42    22    50    1
    43    22    51    1
    44    23    24    1
    45    23    52    1
    46    23    53    1
    47    24    25    1
    48    25    26    1
    49    25    27    1
    50    25    33    1
    51    27    32   ar
    52    27    28   ar
    53    28    29   ar
    54    28    54    1
    55    29    30   ar
    56    29    55    1
    57    30    31   ar
    58    30    56    1
    59    31    32   ar
    60    31    57    1
    61    32    58    1
    62    33    59    1
    63    33    60    1
    64    34    61    1
@<TRIPOS>SUBSTRUCTURE
     1 ZINC000462219577        1 TEMP              0 ****  ****    0 ROOT


##########                                Name:    ZINC000883773972
##########                DOCK_Rotatable_Bonds:                   4
##########                         Heavy_Atoms:                  23
##########                    Molecular_Weight:             343.447
##########                DOCK_Rotatable_Bonds:                   4
##########                       Formal_Charge:                0.01
##########                     HBond_Acceptors:                   8
##########                        HBond_Donors:                   1
##########                         Heavy_Atoms:                  23
##########                          Grid_Score:          -27.523762
##########                     Grid_vdw_energy:          -27.586514
##########                      Grid_es_energy:            0.062751
##########           Internal_energy_repulsive:            4.797118

@<TRIPOS>MOLECULE
ZINC000883773972
 48 50 1 0 0
SMALL
USER_CHARGES


@<TRIPOS>ATOM
      1 C1        -15.2131   -4.2093   58.1733 C.3     1  ZINC000883773972   -0.1700
      2 C2        -14.4945   -3.0513   58.8166 C.2     1  ZINC000883773972    0.5300
      3 O3        -14.7608   -2.7293   59.9552 O.2     1  ZINC000883773972   -0.5400
      4 N4        -13.5559   -2.3735   58.1267 N.am    1  ZINC000883773972   -0.6200
      5 C5        -13.1218   -2.6325   56.7440 C.3     1  ZINC000883773972    0.1100
      6 C6        -12.7140   -1.2717   56.1554 C.3     1  ZINC000883773972   -0.1100
      7 H7        -13.4766   -0.8742   55.4858 H       1  ZINC000883773972    0.1000
      8 C8        -11.3515   -1.4072   55.4552 C.3     1  ZINC000883773972    0.1300
      9 N9        -10.5221   -0.2925   55.9417 N.am    1  ZINC000883773972   -0.6400
     10 C10        -9.5529    0.3483   55.2586 C.2     1  ZINC000883773972    0.7300
     11 O11        -8.9413    1.2596   55.7818 O.2     1  ZINC000883773972   -0.5800
     12 N12        -9.2618   -0.0211   53.9955 N.am    1  ZINC000883773972   -0.7400
     13 C13        -8.2095    0.6766   53.2524 C.3     1  ZINC000883773972    0.1800
     14 H14        -7.4297    0.9963   53.9437 H       1  ZINC000883773972    0.1100
     15 C15        -7.6103   -0.2685   52.2150 C.3     1  ZINC000883773972   -0.1500
     16 C16        -6.3529    0.3372   51.5983 C.3     1  ZINC000883773972   -0.1000
     17 C17        -6.7268    1.5241   50.7074 C.3     1  ZINC000883773972   -0.5600
     18 H18        -7.4426    1.2013   49.9513 H       1  ZINC000883773972    0.1400
     19 C19        -5.4702    2.0673   50.0242 C.3     1  ZINC000883773972   -0.1400
     20 S20        -7.4727    2.8231   51.7352 S.o2    1  ZINC000883773972    2.4200
     21 O21        -6.5260    3.2276   52.7148 O.2     1  ZINC000883773972   -0.9200
     22 O22        -8.0520    3.8011   50.8825 O.2     1  ZINC000883773972   -0.9300
     23 C23        -8.8059    1.9025   52.5574 C.3     1  ZINC000883773972   -0.6300
     24 C24       -10.9581   -0.0143   57.3200 C.3     1  ZINC000883773972    0.1100
     25 C25       -12.4799   -0.3510   57.3783 C.3     1  ZINC000883773972   -0.1100
     26 H26       -13.0955    0.5484   57.3593 H       1  ZINC000883773972    0.1000
     27 C27       -12.7690   -1.2255   58.6062 C.3     1  ZINC000883773972    0.1100
     28 H28       -15.9299   -4.6293   58.8790 H       1  ZINC000883773972    0.0900
     29 H29       -15.7396   -3.8616   57.2844 H       1  ZINC000883773972    0.0900
     30 H30       -14.4898   -4.9744   57.8913 H       1  ZINC000883773972    0.0900
     31 H31       -12.2697   -3.3123   56.7405 H       1  ZINC000883773972    0.0800
     32 H32       -13.9432   -3.0584   56.1676 H       1  ZINC000883773972    0.0900
     33 H33       -10.8895   -2.3592   55.7167 H       1  ZINC000883773972    0.0700
     34 H34       -11.4773   -1.3362   54.3748 H       1  ZINC000883773972    0.0900
     35 H35        -9.7488   -0.7490   53.5786 H       1  ZINC000883773972    0.4000
     36 H36        -7.3557   -1.2135   52.6947 H       1  ZINC000883773972    0.0900
     37 H37        -8.3436   -0.4511   51.4296 H       1  ZINC000883773972    0.0800
     38 H38        -5.6878    0.6764   52.3924 H       1  ZINC000883773972    0.0900
     39 H39        -5.8436   -0.4181   50.9997 H       1  ZINC000883773972    0.0900
     40 H40        -5.0207    1.2837   49.4144 H       1  ZINC000883773972    0.0800
     41 H41        -5.7380    2.9125   49.3901 H       1  ZINC000883773972    0.0700
     42 H42        -4.7569    2.3928   50.7814 H       1  ZINC000883773972    0.0800
     43 H43        -9.5396    1.5837   51.8168 H       1  ZINC000883773972    0.1400
     44 H44        -9.2873    2.5412   53.2981 H       1  ZINC000883773972    0.1400
     45 H45       -10.4034   -0.6380   58.0209 H       1  ZINC000883773972    0.0800
     46 H46       -10.8064    1.0392   57.5549 H       1  ZINC000883773972    0.0800
     47 H47       -13.3224   -0.6535   59.3509 H       1  ZINC000883773972    0.0900
     48 H48       -11.8352   -1.5916   59.0330 H       1  ZINC000883773972    0.0700
@<TRIPOS>BOND
     1     1     2    1
     2     1    28    1
     3     1    29    1
     4     1    30    1
     5     2     3    2
     6     2     4   am
     7     4    27    1
     8     4     5    1
     9     5     6    1
    10     5    31    1
    11     5    32    1
    12     6     7    1
    13     6    25    1
    14     6     8    1
    15     8     9    1
    16     8    33    1
    17     8    34    1
    18     9    10   am
    19     9    24    1
    20    10    11    2
    21    10    12   am
    22    12    13    1
    23    12    35    1
    24    13    14    1
    25    13    23    1
    26    13    15    1
    27    15    16    1
    28    15    36    1
    29    15    37    1
    30    16    17    1
    31    16    38    1
    32    16    39    1
    33    17    18    1
    34    17    19    1
    35    17    20    1
    36    19    40    1
    37    19    41    1
    38    19    42    1
    39    20    21    2
    40    20    22    2
    41    20    23    1
    42    23    43    1
    43    23    44    1
    44    24    25    1
    45    24    45    1
    46    24    46    1
    47    25    26    1
    48    25    27    1
    49    27    47    1
    50    27    48    1
@<TRIPOS>SUBSTRUCTURE
     1 ZINC000883773972        1 TEMP              0 ****  ****    0 ROOT


##########                                Name:    ZINC000371438955
##########                DOCK_Rotatable_Bonds:                   4
##########                         Heavy_Atoms:                  25
##########                    Molecular_Weight:             387.499
##########                DOCK_Rotatable_Bonds:                   4
##########                       Formal_Charge:          -0.0299995
##########                     HBond_Acceptors:                   9
##########                        HBond_Donors:                   1
##########                         Heavy_Atoms:                  25
##########                          Grid_Score:          -27.496992
##########                     Grid_vdw_energy:          -25.102287
##########                      Grid_es_energy:           -2.394705
##########           Internal_energy_repulsive:           22.570435

@<TRIPOS>MOLECULE
ZINC000371438955
 47 49 1 0 0
SMALL
USER_CHARGES


@<TRIPOS>ATOM
      1 C1        -14.3710    0.8860   59.4483 C.3     1  ZINC000371438955   -0.6800
      2 S2        -15.4480   -0.5736   59.4614 S.o2    1  ZINC000371438955    2.6000
      3 O3        -14.8766   -1.6077   60.2510 O.2     1  ZINC000371438955   -0.9500
      4 O4        -16.8060   -0.1898   59.6282 O.2     1  ZINC000371438955   -0.9500
      5 N5        -15.3751   -1.1548   57.9125 N.am    1  ZINC000371438955   -0.9900
      6 C6        -16.1286   -2.3282   57.5752 C.3     1  ZINC000371438955    0.1300
      7 C7        -15.2705   -3.5576   57.9177 C.3     1  ZINC000371438955   -0.1700
      8 C8        -14.2421   -3.8093   56.8959 C.3     1  ZINC000371438955    0.1400
      9 N9        -13.3608   -2.6267   56.7496 N.am    1  ZINC000371438955   -0.6200
     10 C10       -12.1335   -2.6286   57.3067 C.2     1  ZINC000371438955    0.7100
     11 O11       -11.7499   -3.6001   57.9290 O.2     1  ZINC000371438955   -0.5800
     12 N12       -11.3316   -1.5535   57.1740 N.am    1  ZINC000371438955   -0.7400
     13 C13        -9.9976   -1.5555   57.7796 C.3     1  ZINC000371438955    0.2000
     14 H14        -9.5605   -2.5463   57.6554 H       1  ZINC000371438955    0.1100
     15 C15       -10.1373   -1.2685   59.2644 C.3     1  ZINC000371438955   -0.1300
     16 C16        -8.7468   -1.3092   59.9136 C.3     1  ZINC000371438955   -0.1100
     17 S17        -7.8593    0.1846   59.3854 S.3     1  ZINC000371438955   -0.1000
     18 C18        -8.1724    0.2257   57.6493 C.ar    1  ZINC000371438955   -0.1100
     19 C19        -7.4023    1.0939   56.8702 C.ar    1  ZINC000371438955    0.1100
     20 F20        -6.4515    1.8541   57.4560 F       1  ZINC000371438955   -0.1300
     21 C21        -7.6040    1.1809   55.5084 C.ar    1  ZINC000371438955   -0.1300
     22 C22        -8.5808    0.4025   54.9137 C.ar    1  ZINC000371438955   -0.1000
     23 C23        -9.3390   -0.4560   55.6793 C.ar    1  ZINC000371438955   -0.1000
     24 C24        -9.1405   -0.5584   57.0566 C.ar    1  ZINC000371438955   -0.0800
     25 C25       -13.8132   -1.4789   56.0143 C.3     1  ZINC000371438955    0.1000
     26 C26       -14.5348   -0.4396   56.9134 C.3     1  ZINC000371438955    0.0900
     27 H27       -13.3593    0.5886   59.1725 H       1  ZINC000371438955    0.1300
     28 H28       -14.7473    1.6088   58.7244 H       1  ZINC000371438955    0.1300
     29 H29       -14.3592    1.3378   60.4402 H       1  ZINC000371438955    0.1300
     30 H30       -17.0528   -2.3513   58.1526 H       1  ZINC000371438955    0.0800
     31 H31       -16.3589   -2.3247   56.5098 H       1  ZINC000371438955    0.0800
     32 H32       -14.7833   -3.3939   58.8789 H       1  ZINC000371438955    0.0800
     33 H33       -15.9171   -4.4319   57.9935 H       1  ZINC000371438955    0.0900
     34 H34       -13.6435   -4.6710   57.1912 H       1  ZINC000371438955    0.0900
     35 H35       -14.7255   -4.0192   55.9417 H       1  ZINC000371438955    0.0700
     36 H36       -11.6377   -0.7785   56.6776 H       1  ZINC000371438955    0.4000
     37 H37       -10.5770   -0.2811   59.4053 H       1  ZINC000371438955    0.0900
     38 H38       -10.7764   -2.0229   59.7232 H       1  ZINC000371438955    0.1000
     39 H39        -8.8445   -1.3181   60.9992 H       1  ZINC000371438955    0.1200
     40 H40        -8.2085   -2.1971   59.5817 H       1  ZINC000371438955    0.1000
     41 H41        -7.0044    1.8517   54.9112 H       1  ZINC000371438955    0.1400
     42 H42        -8.7492    0.4681   53.8490 H       1  ZINC000371438955    0.1300
     43 H43       -10.1004   -1.0581   55.2058 H       1  ZINC000371438955    0.1400
     44 H44       -12.9544   -1.0015   55.5425 H       1  ZINC000371438955    0.0800
     45 H45       -14.5028   -1.8076   55.2369 H       1  ZINC000371438955    0.0900
     46 H46       -15.1623    0.2024   56.2952 H       1  ZINC000371438955    0.0800
     47 H47       -13.7940    0.1677   57.4334 H       1  ZINC000371438955    0.1000
@<TRIPOS>BOND
     1     1     2    1
     2     1    27    1
     3     1    28    1
     4     1    29    1
     5     2     3    2
     6     2     4    2
     7     2     5   am
     8     5    26    1
     9     5     6    1
    10     6     7    1
    11     6    30    1
    12     6    31    1
    13     7     8    1
    14     7    32    1
    15     7    33    1
    16     8     9    1
    17     8    34    1
    18     8    35    1
    19     9    10   am
    20     9    25    1
    21    10    11    2
    22    10    12   am
    23    12    13    1
    24    12    36    1
    25    13    14    1
    26    13    24    1
    27    13    15    1
    28    15    16    1
    29    15    37    1
    30    15    38    1
    31    16    17    1
    32    16    39    1
    33    16    40    1
    34    17    18    1
    35    18    24   ar
    36    18    19   ar
    37    19    20    1
    38    19    21   ar
    39    21    22   ar
    40    21    41    1
    41    22    23   ar
    42    22    42    1
    43    23    24   ar
    44    23    43    1
    45    25    26    1
    46    25    44    1
    47    25    45    1
    48    26    46    1
    49    26    47    1
@<TRIPOS>SUBSTRUCTURE
     1 ZINC000371438955        1 TEMP              0 ****  ****    0 ROOT


##########                                Name:    ZINC000482139334
##########                DOCK_Rotatable_Bonds:                   4
##########                         Heavy_Atoms:                  26
##########                    Molecular_Weight:             348.376
##########                DOCK_Rotatable_Bonds:                   4
##########                       Formal_Charge:           0.0300002
##########                     HBond_Acceptors:                   5
##########                        HBond_Donors:                   1
##########                         Heavy_Atoms:                  26
##########                          Grid_Score:          -27.494869
##########                     Grid_vdw_energy:          -27.188442
##########                      Grid_es_energy:           -0.306427
##########           Internal_energy_repulsive:            7.618828

@<TRIPOS>MOLECULE
ZINC000482139334
 43 47 1 0 0
SMALL
USER_CHARGES


@<TRIPOS>ATOM
      1 O1         -9.6442    1.1688   53.8445 O.2     1  ZINC000482139334   -0.4800
      2 C2         -8.9674    0.4750   53.1157 C.2     1  ZINC000482139334    0.5500
      3 N3         -8.8225   -0.8387   53.3796 N.am    1  ZINC000482139334   -0.6100
      4 C4         -9.4424   -1.3956   54.4873 C.2     1  ZINC000482139334    0.4300
      5 N5         -9.2754   -1.0097   55.7262 N.2     1  ZINC000482139334   -0.4800
      6 C6        -10.0467   -1.7898   56.5281 C.2     1  ZINC000482139334    0.0400
      7 C7        -10.1581   -1.6928   58.0043 C.ar    1  ZINC000482139334   -0.0500
      8 C8         -9.0678   -1.2708   58.7616 C.ar    1  ZINC000482139334   -0.0800
      9 C9         -9.1769   -1.1818   60.1349 C.ar    1  ZINC000482139334   -0.1300
     10 C10       -10.3656   -1.5110   60.7606 C.ar    1  ZINC000482139334   -0.0800
     11 C11       -11.4525   -1.9315   60.0156 C.ar    1  ZINC000482139334   -0.1600
     12 C12       -11.3575   -2.0187   58.6394 C.ar    1  ZINC000482139334    0.1300
     13 F13       -12.4194   -2.4292   57.9119 F       1  ZINC000482139334   -0.1200
     14 C14       -10.6952   -2.6716   55.7311 C.2     1  ZINC000482139334   -0.0600
     15 O15       -10.3157   -2.4141   54.4622 O.3     1  ZINC000482139334   -0.1800
     16 C16        -8.2934    1.0804   51.9114 C.3     1  ZINC000482139334   -0.1800
     17 H17        -8.1405    0.4055   51.0693 H       1  ZINC000482139334    0.1400
     18 C18        -8.5939    2.5483   51.5960 C.3     1  ZINC000482139334   -0.1200
     19 C19        -7.2343    2.1474   52.1596 C.3     1  ZINC000482139334   -0.0500
     20 C20        -6.8183    2.5403   53.5870 C.3     1  ZINC000482139334   -0.0700
     21 C21        -5.5791    3.4273   53.3338 C.3     1  ZINC000482139334   -0.0900
     22 C22        -5.0223    2.9628   52.0044 C.ar    1  ZINC000482139334   -0.0800
     23 C23        -3.7788    3.1682   51.4320 C.ar    1  ZINC000482139334   -0.1100
     24 C24        -3.4894    2.6418   50.1881 C.ar    1  ZINC000482139334   -0.1100
     25 C25        -4.4447    1.9072   49.5113 C.ar    1  ZINC000482139334   -0.1200
     26 C26        -5.6862    1.7005   50.0802 C.ar    1  ZINC000482139334   -0.1000
     27 C27        -5.9791    2.2265   51.3272 C.ar    1  ZINC000482139334   -0.0700
     28 H28        -8.2844   -1.3945   52.7945 H       1  ZINC000482139334    0.4400
     29 H29        -8.1384   -1.0137   58.2751 H       1  ZINC000482139334    0.1300
     30 H30        -8.3317   -0.8545   60.7223 H       1  ZINC000482139334    0.1400
     31 H31       -10.4453   -1.4400   61.8354 H       1  ZINC000482139334    0.1400
     32 H32       -12.3781   -2.1880   60.5095 H       1  ZINC000482139334    0.1400
     33 H33       -11.3888   -3.4354   56.0506 H       1  ZINC000482139334    0.2200
     34 H34        -8.6378    2.8391   50.5464 H       1  ZINC000482139334    0.1200
     35 H35        -9.2790    3.0760   52.2597 H       1  ZINC000482139334    0.1100
     36 H36        -7.6079    3.1082   54.0790 H       1  ZINC000482139334    0.0800
     37 H37        -6.5518    1.6586   54.1700 H       1  ZINC000482139334    0.0900
     38 H38        -5.8703    4.4760   53.2760 H       1  ZINC000482139334    0.0800
     39 H39        -4.8423    3.2817   54.1237 H       1  ZINC000482139334    0.0800
     40 H40        -3.0320    3.7425   51.9601 H       1  ZINC000482139334    0.1200
     41 H41        -2.5181    2.8045   49.7449 H       1  ZINC000482139334    0.1300
     42 H42        -4.2206    1.4954   48.5384 H       1  ZINC000482139334    0.1300
     43 H43        -6.4319    1.1267   49.5500 H       1  ZINC000482139334    0.1200
@<TRIPOS>BOND
     1     1     2    2
     2     2     3   am
     3     2    16    1
     4     3     4    1
     5     3    28    1
     6     4    15    1
     7     4     5    2
     8     5     6    1
     9     6     7    1
    10     6    14    2
    11     7    12   ar
    12     7     8   ar
    13     8     9   ar
    14     8    29    1
    15     9    10   ar
    16     9    30    1
    17    10    11   ar
    18    10    31    1
    19    11    12   ar
    20    11    32    1
    21    12    13    1
    22    14    15    1
    23    14    33    1
    24    16    17    1
    25    16    19    1
    26    16    18    1
    27    18    19    1
    28    18    34    1
    29    18    35    1
    30    19    27    1
    31    19    20    1
    32    20    21    1
    33    20    36    1
    34    20    37    1
    35    21    22    1
    36    21    38    1
    37    21    39    1
    38    22    27   ar
    39    22    23   ar
    40    23    24   ar
    41    23    40    1
    42    24    25   ar
    43    24    41    1
    44    25    26   ar
    45    25    42    1
    46    26    27   ar
    47    26    43    1
@<TRIPOS>SUBSTRUCTURE
     1 ZINC000482139334        1 TEMP              0 ****  ****    0 ROOT


##########                                Name:    ZINC001231746020
##########                DOCK_Rotatable_Bonds:                   3
##########                         Heavy_Atoms:                  19
##########                    Molecular_Weight:             348.667
##########                DOCK_Rotatable_Bonds:                   3
##########                       Formal_Charge:          -0.0399997
##########                     HBond_Acceptors:                   4
##########                        HBond_Donors:                   2
##########                         Heavy_Atoms:                  19
##########                          Grid_Score:          -27.489620
##########                     Grid_vdw_energy:          -26.043657
##########                      Grid_es_energy:           -1.445963
##########           Internal_energy_repulsive:           11.966295

@<TRIPOS>MOLECULE
ZINC001231746020
 38 39 1 0 0
SMALL
USER_CHARGES


@<TRIPOS>ATOM
      1 C1         -8.3876   -0.4362   51.7189 C.3     1  ZINC001231746020   -0.1500
      2 C2         -7.3136    0.6535   51.7181 C.3     1  ZINC001231746020   -0.0900
      3 H3         -6.3257    0.1927   51.7212 H       1  ZINC001231746020    0.0800
      4 C4         -7.4662    1.5113   50.4905 C.3     1  ZINC001231746020   -0.1400
      5 C5         -6.1342    2.0807   49.9698 C.3     1  ZINC001231746020   -0.0100
      6 N6         -5.2463    2.5812   51.0411 N.4     1  ZINC001231746020   -0.3800
      7 H7         -4.7850    1.7975   51.4781 H       1  ZINC001231746020    0.4100
      8 C8         -4.2318    3.4627   50.4482 C.3     1  ZINC001231746020    0.0700
      9 C9         -2.9719    2.6768   50.1910 C.ar    1  ZINC001231746020   -0.3100
     10 C10        -2.9885    1.6181   49.3022 C.ar    1  ZINC001231746020   -0.0300
     11 C11        -1.8339    0.8955   49.0640 C.ar    1  ZINC001231746020   -0.1600
     12 Cl12       -1.8555   -0.4339   47.9479 Cl      1  ZINC001231746020   -0.0800
     13 C13        -0.6578    1.2341   49.7185 C.ar    1  ZINC001231746020    0.3100
     14 O14         0.4790    0.5258   49.4858 O.3     1  ZINC001231746020   -0.6300
     15 C15        -0.6443    2.2972   50.6104 C.ar    1  ZINC001231746020   -0.2100
     16 Br16        0.9558    2.7622   51.5045 Br      1  ZINC001231746020   -0.0600
     17 C17        -1.8001    3.0197   50.8401 C.ar    1  ZINC001231746020   -0.0200
     18 C18        -5.9760    3.3148   52.0466 C.3     1  ZINC001231746020   -0.0200
     19 C19        -6.2844    2.3505   53.2034 C.3     1  ZINC001231746020   -0.1800
     20 C20        -7.4775    1.5448   52.9747 C.3     1  ZINC001231746020    0.1000
     21 H21        -7.6526    0.9100   53.8433 H       1  ZINC001231746020    0.0700
     22 O22        -8.6002    2.4100   52.7931 O.3     1  ZINC001231746020   -0.5600
     23 H23        -8.2779   -1.0551   50.8284 H       1  ZINC001231746020    0.0600
     24 H24        -9.3745    0.0265   51.7205 H       1  ZINC001231746020    0.0700
     25 H25        -8.2755   -1.0562   52.6085 H       1  ZINC001231746020    0.0600
     26 H26        -7.9224    0.9134   49.7015 H       1  ZINC001231746020    0.1000
     27 H27        -8.1307    2.3425   50.7259 H       1  ZINC001231746020    0.1000
     28 H28        -5.6111    1.2979   49.4206 H       1  ZINC001231746020    0.1200
     29 H29        -6.3495    2.9000   49.2840 H       1  ZINC001231746020    0.1200
     30 H30        -4.6064    3.8668   49.5076 H       1  ZINC001231746020    0.1200
     31 H31        -4.0156    4.2812   51.1348 H       1  ZINC001231746020    0.1200
     32 H32        -3.9042    1.3551   48.7934 H       1  ZINC001231746020    0.1100
     33 H33        -1.7889    3.8504   51.5302 H       1  ZINC001231746020    0.1100
     34 H34        -5.3701    4.1449   52.4099 H       1  ZINC001231746020    0.1400
     35 H35        -6.9062    3.6945   51.6240 H       1  ZINC001231746020    0.1300
     36 H36        -5.4327    1.6842   53.3407 H       1  ZINC001231746020    0.0900
     37 H37        -6.4250    2.9307   54.1154 H       1  ZINC001231746020    0.1100
     38 H38        -8.5234    2.9990   52.0301 H       1  ZINC001231746020    0.3900
@<TRIPOS>BOND
     1     1     2    1
     2     1    23    1
     3     1    24    1
     4     1    25    1
     5     2     3    1
     6     2    20    1
     7     2     4    1
     8     4     5    1
     9     4    26    1
    10     4    27    1
    11     5     6    1
    12     5    28    1
    13     5    29    1
    14     6     7    1
    15     6     8    1
    16     6    18    1
    17     8     9    1
    18     8    30    1
    19     8    31    1
    20     9    17   ar
    21     9    10   ar
    22    10    11   ar
    23    10    32    1
    24    11    12    1
    25    11    13   ar
    26    13    14    1
    27    13    15   ar
    28    15    16    1
    29    15    17   ar
    30    17    33    1
    31    18    19    1
    32    18    34    1
    33    18    35    1
    34    19    20    1
    35    19    36    1
    36    19    37    1
    37    20    21    1
    38    20    22    1
    39    22    38    1
@<TRIPOS>SUBSTRUCTURE
     1 ZINC001231746020        1 TEMP              0 ****  ****    0 ROOT


##########                                Name:    ZINC000302023461
##########                DOCK_Rotatable_Bonds:                   3
##########                         Heavy_Atoms:                  25
##########                    Molecular_Weight:             356.362
##########                DOCK_Rotatable_Bonds:                   3
##########                       Formal_Charge:        -2.08616e-07
##########                     HBond_Acceptors:                   9
##########                        HBond_Donors:                   1
##########                         Heavy_Atoms:                  25
##########                          Grid_Score:          -27.457699
##########                     Grid_vdw_energy:          -26.789869
##########                      Grid_es_energy:           -0.667830
##########           Internal_energy_repulsive:           20.846968

@<TRIPOS>MOLECULE
ZINC000302023461
 37 40 1 0 0
SMALL
USER_CHARGES


@<TRIPOS>ATOM
      1 O1        -10.4212   -4.4549   57.8430 O.2     1  ZINC000302023461   -0.1600
      2 N2        -10.8623   -3.4497   57.3150 N.pl3   1  ZINC000302023461    0.0200
      3 O3        -10.7989   -3.3192   56.1057 O.2     1  ZINC000302023461   -0.1300
      4 C4        -11.4809   -2.3897   58.1426 C.ar    1  ZINC000302023461    0.0000
      5 C5        -11.5533   -2.5368   59.5134 C.ar    1  ZINC000302023461   -0.0600
      6 C6        -12.1311   -1.5467   60.2875 C.ar    1  ZINC000302023461   -0.0900
      7 C7        -12.6380   -0.4063   59.6918 C.ar    1  ZINC000302023461   -0.0800
      8 C8        -12.5691   -0.2523   58.3211 C.ar    1  ZINC000302023461   -0.0500
      9 C9        -11.9846   -1.2424   57.5409 C.ar    1  ZINC000302023461   -0.1100
     10 S10       -11.8939   -1.0500   55.7919 S.3     1  ZINC000302023461    0.1900
     11 C11       -10.2473   -0.4757   55.5411 C.2     1  ZINC000302023461    0.2100
     12 N12        -9.3459   -0.3106   56.4817 N.2     1  ZINC000302023461   -0.3200
     13 N13        -8.1804    0.1584   55.8544 N.pl3   1  ZINC000302023461   -0.4700
     14 C14        -8.4662    0.2473   54.5358 C.2     1  ZINC000302023461    0.3500
     15 C15        -7.5409    0.6969   53.4734 C.ar    1  ZINC000302023461   -0.0400
     16 C16        -7.3121   -0.1091   52.3579 C.ar    1  ZINC000302023461   -0.0900
     17 C17        -6.4474    0.3117   51.3696 C.ar    1  ZINC000302023461   -0.1100
     18 C18        -5.8018    1.5361   51.4794 C.ar    1  ZINC000302023461    0.0800
     19 O19        -4.9463    1.9274   50.4963 O.3     1  ZINC000302023461   -0.3000
     20 C20        -4.6041    3.3169   50.4554 C.3     1  ZINC000302023461    0.0200
     21 C21        -4.2602    3.7697   51.8808 C.3     1  ZINC000302023461    0.0200
     22 O22        -5.4072    3.5515   52.7092 O.3     1  ZINC000302023461   -0.3000
     23 C23        -6.0285    2.3462   52.5885 C.ar    1  ZINC000302023461    0.0500
     24 C24        -6.8986    1.9310   53.5812 C.ar    1  ZINC000302023461   -0.0500
     25 N25        -9.7134   -0.1437   54.3637 N.2     1  ZINC000302023461   -0.5000
     26 H26       -11.1584   -3.4262   59.9819 H       1  ZINC000302023461    0.1600
     27 H27       -12.1870   -1.6647   61.3595 H       1  ZINC000302023461    0.1500
     28 H28       -13.0885    0.3648   60.2992 H       1  ZINC000302023461    0.1500
     29 H29       -12.9657    0.6383   57.8565 H       1  ZINC000302023461    0.1600
     30 H30        -7.3374    0.3756   56.2823 H       1  ZINC000302023461    0.4400
     31 H31        -7.8117   -1.0625   52.2686 H       1  ZINC000302023461    0.1300
     32 H32        -6.2714   -0.3137   50.5067 H       1  ZINC000302023461    0.1500
     33 H33        -3.7421    3.4642   49.8048 H       1  ZINC000302023461    0.1300
     34 H34        -5.4505    3.8929   50.0810 H       1  ZINC000302023461    0.0800
     35 H35        -3.4185    3.1888   52.2580 H       1  ZINC000302023461    0.0800
     36 H36        -4.0046    4.8293   51.8783 H       1  ZINC000302023461    0.1300
     37 H37        -7.0771    2.5599   54.4409 H       1  ZINC000302023461    0.1600
@<TRIPOS>BOND
     1     1     2    2
     2     2     3    2
     3     2     4    1
     4     4     9   ar
     5     4     5   ar
     6     5     6   ar
     7     5    26    1
     8     6     7   ar
     9     6    27    1
    10     7     8   ar
    11     7    28    1
    12     8     9   ar
    13     8    29    1
    14     9    10    1
    15    10    11    1
    16    11    25    1
    17    11    12    2
    18    12    13    1
    19    13    14    1
    20    13    30    1
    21    14    15    1
    22    14    25    2
    23    15    24   ar
    24    15    16   ar
    25    16    17   ar
    26    16    31    1
    27    17    18   ar
    28    17    32    1
    29    18    23   ar
    30    18    19    1
    31    19    20    1
    32    20    21    1
    33    20    33    1
    34    20    34    1
    35    21    22    1
    36    21    35    1
    37    21    36    1
    38    22    23    1
    39    23    24   ar
    40    24    37    1
@<TRIPOS>SUBSTRUCTURE
     1 ZINC000302023461        1 TEMP              0 ****  ****    0 ROOT


##########                                Name:    ZINC001456096501
##########                DOCK_Rotatable_Bonds:                   7
##########                         Heavy_Atoms:                  24
##########                    Molecular_Weight:             333.431
##########                DOCK_Rotatable_Bonds:                   7
##########                       Formal_Charge:          -0.0200003
##########                     HBond_Acceptors:                   6
##########                        HBond_Donors:                   0
##########                         Heavy_Atoms:                  24
##########                          Grid_Score:          -27.424868
##########                     Grid_vdw_energy:          -27.263700
##########                      Grid_es_energy:           -0.161168
##########           Internal_energy_repulsive:          145.604797

@<TRIPOS>MOLECULE
ZINC001456096501
 51 52 1 0 0
SMALL
USER_CHARGES


@<TRIPOS>ATOM
      1 C1         -8.1999   -2.7153   59.5400 C.3     1  ZINC001456096501    0.0400
      2 O2         -8.1551   -1.3400   59.1546 O.3     1  ZINC001456096501   -0.2900
      3 C3         -8.2343   -0.4208   60.1461 C.ar    1  ZINC001456096501    0.3700
      4 N4         -8.4910   -0.8094   61.3834 N.ar    1  ZINC001456096501   -0.5400
      5 C5         -8.5764    0.0518   62.3790 C.ar    1  ZINC001456096501    0.1600
      6 C6         -8.4001    1.4076   62.1702 C.ar    1  ZINC001456096501   -0.2200
      7 C7         -8.1292    1.8701   60.8944 C.ar    1  ZINC001456096501   -0.0200
      8 C8         -8.0379    0.9377   59.8549 C.ar    1  ZINC001456096501   -0.2000
      9 C9         -7.7505    1.3761   58.4758 C.2     1  ZINC001456096501    0.5900
     10 O10        -6.6229    1.7089   58.1661 O.2     1  ZINC001456096501   -0.5100
     11 N11        -8.7382    1.4076   57.5592 N.am    1  ZINC001456096501   -0.6200
     12 C12       -10.1401    1.0338   57.7969 C.3     1  ZINC001456096501    0.1000
     13 C13       -10.8924    1.2036   56.4603 C.3     1  ZINC001456096501   -0.1200
     14 C14        -9.7550    1.1213   55.4083 C.3     1  ZINC001456096501   -0.1200
     15 H15        -9.5053    0.0844   55.1831 H       1  ZINC001456096501    0.0900
     16 C16       -10.1302    1.8812   54.1344 C.3     1  ZINC001456096501    0.1200
     17 N17        -8.9349    2.0699   53.3085 N.am    1  ZINC001456096501   -0.6200
     18 C18        -8.3120    3.3924   53.2128 C.3     1  ZINC001456096501    0.0600
     19 C19        -8.4082    1.0268   52.6370 C.2     1  ZINC001456096501    0.5200
     20 O20        -8.9238   -0.0681   52.7162 O.2     1  ZINC001456096501   -0.5300
     21 C21        -7.1787    1.2209   51.7875 C.3     1  ZINC001456096501   -0.0800
     22 C22        -6.6312   -0.1434   51.3633 C.3     1  ZINC001456096501   -0.1300
     23 C23        -7.5416    2.0341   50.5434 C.3     1  ZINC001456096501   -0.1500
     24 C24        -6.1149    1.9692   52.5934 C.3     1  ZINC001456096501   -0.1700
     25 C25        -8.5930    1.8287   56.1538 C.3     1  ZINC001456096501    0.1200
     26 H26        -7.3666   -2.9328   60.2083 H       1  ZINC001456096501    0.0600
     27 H27        -9.1398   -2.9184   60.0533 H       1  ZINC001456096501    0.0600
     28 H28        -8.1274   -3.3439   58.6524 H       1  ZINC001456096501    0.1000
     29 H29        -8.7882   -0.3083   63.3748 H       1  ZINC001456096501    0.1700
     30 H30        -8.4737    2.0997   62.9960 H       1  ZINC001456096501    0.1500
     31 H31        -7.9880    2.9242   60.7063 H       1  ZINC001456096501    0.1500
     32 H32       -10.1965   -0.0042   58.1248 H       1  ZINC001456096501    0.0700
     33 H33       -10.5750    1.6877   58.5528 H       1  ZINC001456096501    0.0700
     34 H34       -11.6100    0.3958   56.3164 H       1  ZINC001456096501    0.0900
     35 H35       -11.3882    2.1734   56.4173 H       1  ZINC001456096501    0.0800
     36 H36       -10.8714    1.3099   53.5756 H       1  ZINC001456096501    0.0800
     37 H37       -10.5453    2.8534   54.4002 H       1  ZINC001456096501    0.0900
     38 H38        -7.5280    3.4801   53.9649 H       1  ZINC001456096501    0.0600
     39 H39        -7.8794    3.5193   52.2204 H       1  ZINC001456096501    0.0900
     40 H40        -9.0653    4.1619   53.3819 H       1  ZINC001456096501    0.0700
     41 H41        -7.3891   -0.6764   50.7892 H       1  ZINC001456096501    0.0600
     42 H42        -5.7420   -0.0029   50.7489 H       1  ZINC001456096501    0.0600
     43 H43        -6.3728   -0.7227   52.2497 H       1  ZINC001456096501    0.0600
     44 H44        -8.0519    2.9493   50.8436 H       1  ZINC001456096501    0.0700
     45 H45        -6.6330    2.2872   49.9969 H       1  ZINC001456096501    0.0700
     46 H46        -8.1984    1.4452   49.9032 H       1  ZINC001456096501    0.0600
     47 H47        -5.8564    1.3898   53.4798 H       1  ZINC001456096501    0.0600
     48 H48        -5.2256    2.1095   51.9791 H       1  ZINC001456096501    0.0700
     49 H49        -6.5050    2.9411   52.8957 H       1  ZINC001456096501    0.0800
     50 H50        -8.6881    2.9109   56.0648 H       1  ZINC001456096501    0.0800
     51 H51        -7.6321    1.4978   55.7596 H       1  ZINC001456096501    0.0700
@<TRIPOS>BOND
     1     1     2    1
     2     1    26    1
     3     1    27    1
     4     1    28    1
     5     2     3    1
     6     3     8   ar
     7     3     4   ar
     8     4     5   ar
     9     5     6   ar
    10     5    29    1
    11     6     7   ar
    12     6    30    1
    13     7     8   ar
    14     7    31    1
    15     8     9    1
    16     9    10    2
    17     9    11   am
    18    11    25    1
    19    11    12    1
    20    12    13    1
    21    12    32    1
    22    12    33    1
    23    13    14    1
    24    13    34    1
    25    13    35    1
    26    14    15    1
    27    14    16    1
    28    14    25    1
    29    16    17    1
    30    16    36    1
    31    16    37    1
    32    17    18    1
    33    17    19   am
    34    18    38    1
    35    18    39    1
    36    18    40    1
    37    19    20    2
    38    19    21    1
    39    21    22    1
    40    21    23    1
    41    21    24    1
    42    22    41    1
    43    22    42    1
    44    22    43    1
    45    23    44    1
    46    23    45    1
    47    23    46    1
    48    24    47    1
    49    24    48    1
    50    24    49    1
    51    25    50    1
    52    25    51    1
@<TRIPOS>SUBSTRUCTURE
     1 ZINC001456096501        1 TEMP              0 ****  ****    0 ROOT


##########                                Name:    ZINC001708427409
##########                DOCK_Rotatable_Bonds:                   6
##########                         Heavy_Atoms:                  24
##########                    Molecular_Weight:             334.505
##########                DOCK_Rotatable_Bonds:                   6
##########                       Formal_Charge:          -0.0200006
##########                     HBond_Acceptors:                   5
##########                        HBond_Donors:                   1
##########                         Heavy_Atoms:                  24
##########                          Grid_Score:          -27.422184
##########                     Grid_vdw_energy:          -27.282154
##########                      Grid_es_energy:           -0.140029
##########           Internal_energy_repulsive:           13.421926

@<TRIPOS>MOLECULE
ZINC001708427409
 58 60 1 0 0
SMALL
USER_CHARGES


@<TRIPOS>ATOM
      1 C1         -9.9600   -3.5635   58.2537 C.3     1  ZINC001708427409   -0.1500
      2 C2        -10.4569   -2.8680   56.9849 C.3     1  ZINC001708427409   -0.1200
      3 C3        -10.6476   -1.3756   57.2627 C.3     1  ZINC001708427409    0.0000
      4 H4         -9.9066   -1.0438   57.9900 H       1  ZINC001708427409    0.0800
      5 C5        -12.0522   -1.1360   57.8200 C.3     1  ZINC001708427409   -0.1400
      6 C6        -10.4763   -0.6002   55.9819 C.2     1  ZINC001708427409    0.1800
      7 N7        -11.3402   -0.5136   55.0102 N.2     1  ZINC001708427409   -0.2800
      8 N8        -10.8730    0.2278   54.0700 N.2     1  ZINC001708427409   -0.3200
      9 C9         -9.6763    0.6575   54.3940 C.2     1  ZINC001708427409    0.3600
     10 N10        -8.8615    1.4791   53.6313 N.3     1  ZINC001708427409   -0.4200
     11 C11        -9.4610    2.8341   53.4808 C.3     1  ZINC001708427409    0.0400
     12 C12        -8.7981    3.4197   52.2146 C.3     1  ZINC001708427409   -0.0900
     13 H13        -7.9635    4.0651   52.4881 H       1  ZINC001708427409    0.0900
     14 C14        -9.8240    4.1994   51.3897 C.3     1  ZINC001708427409   -0.1500
     15 C15        -8.2889    2.1870   51.4205 C.3     1  ZINC001708427409   -0.0800
     16 H16        -8.7065    2.1682   50.4140 H       1  ZINC001708427409    0.0900
     17 C17        -6.7631    2.2774   51.3792 C.3     1  ZINC001708427409   -0.1100
     18 C18        -6.1799    0.9508   50.8933 C.3     1  ZINC001708427409   -0.1200
     19 C19        -6.4925   -0.1245   51.9316 C.3     1  ZINC001708427409   -0.1100
     20 C20        -7.9894   -0.2796   52.1075 C.3     1  ZINC001708427409   -0.1000
     21 C21        -8.7739    0.9923   52.2376 C.3     1  ZINC001708427409    0.1000
     22 H22        -9.7939    0.7736   51.9216 H       1  ZINC001708427409    0.0600
     23 N23        -9.3882    0.1476   55.6264 N.pl3   1  ZINC001708427409   -0.4700
     24 C24        -8.1629    0.3511   56.4034 C.3     1  ZINC001708427409    0.0800
     25 C25        -8.2913    1.6306   57.2324 C.3     1  ZINC001708427409    0.1200
     26 C26        -8.1287    1.2951   58.7164 C.3     1  ZINC001708427409   -0.1800
     27 C27        -7.2047    2.6220   56.8117 C.3     1  ZINC001708427409   -0.1500
     28 O28        -9.5779    2.2128   57.0138 O.3     1  ZINC001708427409   -0.5400
     29 H29       -10.6923   -3.4330   59.0503 H       1  ZINC001708427409    0.0600
     30 H30        -9.8241   -4.6268   58.0558 H       1  ZINC001708427409    0.0600
     31 H31        -9.0093   -3.1265   58.5590 H       1  ZINC001708427409    0.0500
     32 H32        -9.7245   -2.9986   56.1882 H       1  ZINC001708427409    0.0700
     33 H33       -11.4076   -3.3051   56.6795 H       1  ZINC001708427409    0.0800
     34 H34       -12.1761   -1.6967   58.7464 H       1  ZINC001708427409    0.0700
     35 H35       -12.1880   -0.0727   58.0180 H       1  ZINC001708427409    0.0500
     36 H36       -12.7932   -1.4676   57.0927 H       1  ZINC001708427409    0.0700
     37 H37       -10.5398    2.7590   53.3441 H       1  ZINC001708427409    0.0600
     38 H38        -9.2296    3.4502   54.3497 H       1  ZINC001708427409    0.0800
     39 H39       -10.2089    5.0307   51.9803 H       1  ZINC001708427409    0.0600
     40 H40        -9.3481    4.5842   50.4878 H       1  ZINC001708427409    0.0600
     41 H41       -10.6458    3.5388   51.1135 H       1  ZINC001708427409    0.0600
     42 H42        -6.4656    3.0751   50.6984 H       1  ZINC001708427409    0.0600
     43 H43        -6.3856    2.4951   52.3783 H       1  ZINC001708427409    0.0700
     44 H44        -6.6308    0.6803   49.9387 H       1  ZINC001708427409    0.0600
     45 H45        -5.1001    1.0458   50.7781 H       1  ZINC001708427409    0.0600
     46 H46        -6.0692   -1.0739   51.6039 H       1  ZINC001708427409    0.0600
     47 H47        -6.0462    0.1568   52.8855 H       1  ZINC001708427409    0.0600
     48 H48        -8.3797   -0.8224   51.2466 H       1  ZINC001708427409    0.0600
     49 H49        -8.1676   -0.8852   52.9960 H       1  ZINC001708427409    0.0700
     50 H50        -8.0089   -0.4988   57.0683 H       1  ZINC001708427409    0.0900
     51 H51        -7.3137    0.4408   55.7258 H       1  ZINC001708427409    0.1000
     52 H52        -7.1474    0.8510   58.8831 H       1  ZINC001708427409    0.0700
     53 H53        -8.2203    2.2067   59.3071 H       1  ZINC001708427409    0.0700
     54 H54        -8.9029    0.5887   59.0161 H       1  ZINC001708427409    0.0600
     55 H55        -7.2689    2.7976   55.7379 H       1  ZINC001708427409    0.0700
     56 H56        -7.3463    3.5633   57.3429 H       1  ZINC001708427409    0.0700
     57 H57        -6.2245    2.2117   57.0547 H       1  ZINC001708427409    0.0700
     58 H58        -9.7073    3.0601   57.4614 H       1  ZINC001708427409    0.3800
@<TRIPOS>BOND
     1     1     2    1
     2     1    29    1
     3     1    30    1
     4     1    31    1
     5     2     3    1
     6     2    32    1
     7     2    33    1
     8     3     4    1
     9     3     5    1
    10     3     6    1
    11     5    34    1
    12     5    35    1
    13     5    36    1
    14     6    23    1
    15     6     7    2
    16     7     8    1
    17     8     9    2
    18     9    10    1
    19     9    23    1
    20    10    21    1
    21    10    11    1
    22    11    12    1
    23    11    37    1
    24    11    38    1
    25    12    13    1
    26    12    14    1
    27    12    15    1
    28    14    39    1
    29    14    40    1
    30    14    41    1
    31    15    16    1
    32    15    21    1
    33    15    17    1
    34    17    18    1
    35    17    42    1
    36    17    43    1
    37    18    19    1
    38    18    44    1
    39    18    45    1
    40    19    20    1
    41    19    46    1
    42    19    47    1
    43    20    21    1
    44    20    48    1
    45    20    49    1
    46    21    22    1
    47    23    24    1
    48    24    25    1
    49    24    50    1
    50    24    51    1
    51    25    26    1
    52    25    27    1
    53    25    28    1
    54    26    52    1
    55    26    53    1
    56    26    54    1
    57    27    55    1
    58    27    56    1
    59    27    57    1
    60    28    58    1
@<TRIPOS>SUBSTRUCTURE
     1 ZINC001708427409        1 TEMP              0 ****  ****    0 ROOT


##########                                Name:    ZINC000298969660
##########                DOCK_Rotatable_Bonds:                  10
##########                         Heavy_Atoms:                  29
##########                    Molecular_Weight:             397.474
##########                DOCK_Rotatable_Bonds:                  10
##########                       Formal_Charge:          -0.0100008
##########                     HBond_Acceptors:                   7
##########                        HBond_Donors:                   2
##########                         Heavy_Atoms:                  29
##########                          Grid_Score:          -27.409004
##########                     Grid_vdw_energy:          -26.698265
##########                      Grid_es_energy:           -0.710739
##########           Internal_energy_repulsive:          169.984467

@<TRIPOS>MOLECULE
ZINC000298969660
 56 58 1 0 0
SMALL
USER_CHARGES


@<TRIPOS>ATOM
      1 C1         -7.7857    0.0765   63.6422 C.3     1  ZINC000298969660    0.0800
      2 N2         -9.1213    0.4698   63.1865 N.am    1  ZINC000298969660   -0.6300
      3 C3         -9.9801    1.2831   64.0509 C.3     1  ZINC000298969660    0.1400
      4 C4         -9.6748    2.7650   63.8242 C.3     1  ZINC000298969660    0.0700
      5 H5        -10.3139    3.3703   64.4670 H       1  ZINC000298969660    0.0500
      6 C6         -9.9389    3.1225   62.3592 C.3     1  ZINC000298969660   -0.1500
      7 C7         -9.5739    4.5918   62.1264 C.3     1  ZINC000298969660   -0.1200
      8 C8         -8.1111    4.8123   62.5240 C.3     1  ZINC000298969660   -0.1600
      9 C9         -7.9176    4.3895   63.9826 C.3     1  ZINC000298969660    0.0600
     10 O10        -8.3042    3.0225   64.1365 O.3     1  ZINC000298969660   -0.3600
     11 C11        -9.5599    0.0834   61.9721 C.2     1  ZINC000298969660    0.7100
     12 O12       -10.6678    0.4111   61.5933 O.2     1  ZINC000298969660   -0.5400
     13 N13        -8.7704   -0.6662   61.1775 N.am    1  ZINC000298969660   -0.6900
     14 C14        -9.2258   -1.0673   59.9166 C.ar    1  ZINC000298969660    0.2000
     15 C15        -9.8233   -2.3107   59.7563 C.ar    1  ZINC000298969660   -0.1800
     16 C16       -10.2725   -2.7071   58.5113 C.ar    1  ZINC000298969660   -0.0600
     17 C17       -10.1290   -1.8679   57.4230 C.ar    1  ZINC000298969660   -0.2300
     18 C18        -9.5327   -0.6240   57.5773 C.ar    1  ZINC000298969660    0.1500
     19 O19        -9.3919    0.2001   56.5059 O.3     1  ZINC000298969660   -0.2900
     20 C20        -8.5298   -0.2426   55.4557 C.3     1  ZINC000298969660    0.0400
     21 C21        -8.4664    0.8110   54.3801 C.2     1  ZINC000298969660    0.5100
     22 O22        -8.6707    1.9739   54.6575 O.2     1  ZINC000298969660   -0.4900
     23 N23        -8.1827    0.4610   53.1099 N.am    1  ZINC000298969660   -0.6700
     24 C24        -8.1238    1.4393   52.1111 C.ar    1  ZINC000298969660    0.1400
     25 C25        -8.3531    2.7718   52.4280 C.ar    1  ZINC000298969660   -0.1400
     26 C26        -8.2943    3.7350   51.4399 C.ar    1  ZINC000298969660   -0.1000
     27 C27        -8.0081    3.3737   50.1362 C.ar    1  ZINC000298969660   -0.1300
     28 C28        -7.7798    2.0477   49.8174 C.ar    1  ZINC000298969660   -0.1000
     29 C29        -7.8306    1.0805   50.8021 C.ar    1  ZINC000298969660   -0.1200
     30 C30        -9.0860   -0.2207   58.8257 C.ar    1  ZINC000298969660   -0.1500
     31 H31        -7.8472   -0.8758   64.1690 H       1  ZINC000298969660    0.0600
     32 H32        -7.1240   -0.0263   62.7821 H       1  ZINC000298969660    0.0700
     33 H33        -7.3920    0.8388   64.3144 H       1  ZINC000298969660    0.0800
     34 H34       -11.0255    1.0869   63.8126 H       1  ZINC000298969660    0.1000
     35 H35        -9.7913    1.0286   65.0938 H       1  ZINC000298969660    0.0900
     36 H36        -9.3297    2.4893   61.7142 H       1  ZINC000298969660    0.0800
     37 H37       -10.9937    2.9687   62.1312 H       1  ZINC000298969660    0.0700
     38 H38        -9.7065    4.8381   61.0729 H       1  ZINC000298969660    0.0700
     39 H39       -10.2169    5.2281   62.7347 H       1  ZINC000298969660    0.0600
     40 H40        -7.4650    4.2132   61.8823 H       1  ZINC000298969660    0.0700
     41 H41        -7.8587    5.8670   62.4139 H       1  ZINC000298969660    0.0700
     42 H42        -6.8693    4.5041   64.2582 H       1  ZINC000298969660    0.0900
     43 H43        -8.5337    5.0163   64.6275 H       1  ZINC000298969660    0.0400
     44 H44        -7.8865   -0.9276   61.4798 H       1  ZINC000298969660    0.4100
     45 H45        -9.9365   -2.9685   60.6055 H       1  ZINC000298969660    0.1300
     46 H46       -10.7362   -3.6746   58.3884 H       1  ZINC000298969660    0.1300
     47 H47       -10.4811   -2.1803   56.4510 H       1  ZINC000298969660    0.1300
     48 H48        -7.5303   -0.4153   55.8546 H       1  ZINC000298969660    0.1000
     49 H49        -8.9178   -1.1697   55.0337 H       1  ZINC000298969660    0.1000
     50 H50        -8.0193   -0.4690   52.8880 H       1  ZINC000298969660    0.4100
     51 H51        -8.5774    3.0545   53.4459 H       1  ZINC000298969660    0.1300
     52 H52        -8.4724    4.7715   51.6857 H       1  ZINC000298969660    0.1300
     53 H53        -7.9630    4.1287   49.3653 H       1  ZINC000298969660    0.1200
     54 H54        -7.5571    1.7686   48.7981 H       1  ZINC000298969660    0.1300
     55 H55        -7.6522    0.0450   50.5524 H       1  ZINC000298969660    0.1300
     56 H56        -8.6218    0.7467   58.9477 H       1  ZINC000298969660    0.1500
@<TRIPOS>BOND
     1     1     2    1
     2     1    31    1
     3     1    32    1
     4     1    33    1
     5     2     3    1
     6     2    11   am
     7     3     4    1
     8     3    34    1
     9     3    35    1
    10     4     5    1
    11     4    10    1
    12     4     6    1
    13     6     7    1
    14     6    36    1
    15     6    37    1
    16     7     8    1
    17     7    38    1
    18     7    39    1
    19     8     9    1
    20     8    40    1
    21     8    41    1
    22     9    10    1
    23     9    42    1
    24     9    43    1
    25    11    12    2
    26    11    13   am
    27    13    14    1
    28    13    44    1
    29    14    30   ar
    30    14    15   ar
    31    15    16   ar
    32    15    45    1
    33    16    17   ar
    34    16    46    1
    35    17    18   ar
    36    17    47    1
    37    18    19    1
    38    18    30   ar
    39    19    20    1
    40    20    21    1
    41    20    48    1
    42    20    49    1
    43    21    22    2
    44    21    23   am
    45    23    24    1
    46    23    50    1
    47    24    29   ar
    48    24    25   ar
    49    25    26   ar
    50    25    51    1
    51    26    27   ar
    52    26    52    1
    53    27    28   ar
    54    27    53    1
    55    28    29   ar
    56    28    54    1
    57    29    55    1
    58    30    56    1
@<TRIPOS>SUBSTRUCTURE
     1 ZINC000298969660        1 TEMP              0 ****  ****    0 ROOT


##########                                Name:    ZINC000797321835
##########                DOCK_Rotatable_Bonds:                   4
##########                         Heavy_Atoms:                  22
##########                    Molecular_Weight:             381.253
##########                DOCK_Rotatable_Bonds:                   4
##########                       Formal_Charge:           0.0200001
##########                     HBond_Acceptors:                   7
##########                        HBond_Donors:                   1
##########                         Heavy_Atoms:                  22
##########                          Grid_Score:          -27.406897
##########                     Grid_vdw_energy:          -26.849752
##########                      Grid_es_energy:           -0.557145
##########           Internal_energy_repulsive:           23.021723

@<TRIPOS>MOLECULE
ZINC000797321835
 35 37 1 0 0
SMALL
USER_CHARGES


@<TRIPOS>ATOM
      1 C1         -6.8861   -0.0100   51.2904 C.3     1  ZINC000797321835    0.1000
      2 N2         -7.4743    1.2884   50.9525 N.am    1  ZINC000797321835   -0.6000
      3 C3         -8.6137    1.7658   51.4824 C.2     1  ZINC000797321835    0.5200
      4 O4         -9.2984    1.1838   52.2968 O.2     1  ZINC000797321835   -0.5200
      5 C5         -8.9175    3.1351   50.9154 C.3     1  ZINC000797321835   -0.1500
      6 C6         -7.5814    3.5883   50.2824 C.3     1  ZINC000797321835   -0.1200
      7 C7         -6.8921    2.2378   49.9966 C.3     1  ZINC000797321835    0.1200
      8 H8         -7.1034    1.9146   48.9773 H       1  ZINC000797321835    0.1100
      9 C9         -5.4047    2.3565   50.2076 C.2     1  ZINC000797321835    0.4900
     10 O10        -4.9695    3.1232   51.0404 O.2     1  ZINC000797321835   -0.4400
     11 N11        -4.5580    1.6106   49.4705 N.am    1  ZINC000797321835   -0.6500
     12 C12        -3.1813    1.7205   49.6657 C.ar    1  ZINC000797321835    0.3000
     13 C13        -2.3140    0.8238   49.0404 C.ar    1  ZINC000797321835   -0.1400
     14 C14        -0.9568    0.9704   49.2619 C.ar    1  ZINC000797321835   -0.0800
     15 C15        -0.5372    2.0111   50.1012 C.ar    1  ZINC000797321835    0.1100
     16 C16         0.9008    2.2121   50.3706 C.2     1  ZINC000797321835   -0.1400
     17 C17         1.9095    1.6552   49.6698 C.2     1  ZINC000797321835   -0.0900
     18 C18         3.1721    1.9916   50.1103 C.2     1  ZINC000797321835   -0.0900
     19 C19         3.2034    2.8168   51.1628 C.2     1  ZINC000797321835   -0.2000
     20 Br20        4.7753    3.4586   51.9956 Br      1  ZINC000797321835    0.0200
     21 S21         1.5628    3.2207   51.6504 S.3     1  ZINC000797321835    0.1900
     22 N22        -1.4383    2.8165   50.6531 N.ar    1  ZINC000797321835   -0.1900
     23 N23        -2.6966    2.6791   50.4402 N.ar    1  ZINC000797321835   -0.2200
     24 H24        -6.2074    0.1074   52.1352 H       1  ZINC000797321835    0.0700
     25 H25        -7.6785   -0.7099   51.5556 H       1  ZINC000797321835    0.0800
     26 H26        -6.3347   -0.3936   50.4319 H       1  ZINC000797321835    0.0700
     27 H27        -9.6965    3.0692   50.1559 H       1  ZINC000797321835    0.1100
     28 H28        -9.2149    3.8196   51.7098 H       1  ZINC000797321835    0.1100
     29 H29        -7.7551    4.1435   49.3605 H       1  ZINC000797321835    0.1100
     30 H30        -6.9964    4.1789   50.9873 H       1  ZINC000797321835    0.0900
     31 H31        -4.9059    0.9973   48.8044 H       1  ZINC000797321835    0.4200
     32 H32        -2.6915    0.0383   48.4026 H       1  ZINC000797321835    0.1600
     33 H33        -0.2425    0.3033   48.8025 H       1  ZINC000797321835    0.1500
     34 H34         1.7415    0.9973   48.8299 H       1  ZINC000797321835    0.1600
     35 H35         4.0692    1.6164   49.6406 H       1  ZINC000797321835    0.1600
@<TRIPOS>BOND
     1     1     2    1
     2     1    24    1
     3     1    25    1
     4     1    26    1
     5     2     7    1
     6     2     3   am
     7     3     4    2
     8     3     5    1
     9     5     6    1
    10     5    27    1
    11     5    28    1
    12     6     7    1
    13     6    29    1
    14     6    30    1
    15     7     8    1
    16     7     9    1
    17     9    10    2
    18     9    11   am
    19    11    12    1
    20    11    31    1
    21    12    23   ar
    22    12    13   ar
    23    13    14   ar
    24    13    32    1
    25    14    15   ar
    26    14    33    1
    27    15    16    1
    28    15    22   ar
    29    16    21    1
    30    16    17    2
    31    17    18    1
    32    17    34    1
    33    18    19    2
    34    18    35    1
    35    19    20    1
    36    19    21    1
    37    22    23   ar
@<TRIPOS>SUBSTRUCTURE
     1 ZINC000797321835        1 TEMP              0 ****  ****    0 ROOT


##########                                Name:    ZINC000151303733
##########                DOCK_Rotatable_Bonds:                   7
##########                         Heavy_Atoms:                  26
##########                    Molecular_Weight:             369.444
##########                DOCK_Rotatable_Bonds:                   7
##########                       Formal_Charge:        -1.93715e-07
##########                     HBond_Acceptors:                   7
##########                        HBond_Donors:                   2
##########                         Heavy_Atoms:                  26
##########                          Grid_Score:          -27.389822
##########                     Grid_vdw_energy:          -27.484547
##########                      Grid_es_energy:            0.094725
##########           Internal_energy_repulsive:           61.700539

@<TRIPOS>MOLECULE
ZINC000151303733
 45 48 1 0 0
SMALL
USER_CHARGES


@<TRIPOS>ATOM
      1 C1         -8.3417    1.7684   50.8897 C.3     1  ZINC000151303733   -0.1000
      2 C2         -7.8080    2.0589   52.2688 C.2     1  ZINC000151303733   -0.1200
      3 C3         -6.8678    2.9770   52.4957 C.2     1  ZINC000151303733   -0.2000
      4 S4         -6.4991    3.0364   54.2142 S.3     1  ZINC000151303733    0.1200
      5 C5         -7.6771    1.7727   54.5433 C.2     1  ZINC000151303733   -0.2400
      6 C6         -8.2617    1.3953   53.4004 C.2     1  ZINC000151303733    0.1200
      7 N7         -9.2518    0.3967   53.3484 N.am    1  ZINC000151303733   -0.6400
      8 C8         -9.6251   -0.2415   54.4752 C.2     1  ZINC000151303733    0.5100
      9 O9         -9.1075    0.0448   55.5343 O.2     1  ZINC000151303733   -0.5100
     10 C10       -10.6855   -1.3109   54.4195 C.3     1  ZINC000151303733    0.1000
     11 N11       -11.1561   -1.6030   55.7757 N.am    1  ZINC000151303733   -0.7100
     12 C12       -10.7493   -2.7242   56.4034 C.2     1  ZINC000151303733    0.5200
     13 O13        -9.9947   -3.4919   55.8447 O.2     1  ZINC000151303733   -0.5100
     14 C14       -11.2320   -3.0237   57.7991 C.3     1  ZINC000151303733    0.1600
     15 H15       -10.8533   -3.9921   58.1263 H       1  ZINC000151303733    0.1300
     16 C16       -12.7396   -3.0165   57.8389 C.ar    1  ZINC000151303733   -0.0900
     17 C17       -13.7027   -3.7617   57.1997 C.ar    1  ZINC000151303733   -0.0900
     18 C18       -15.0436   -3.5167   57.4459 C.ar    1  ZINC000151303733   -0.0800
     19 C19       -15.4177   -2.5237   58.3335 C.ar    1  ZINC000151303733   -0.1200
     20 C20       -14.4595   -1.7702   58.9800 C.ar    1  ZINC000151303733   -0.0400
     21 C21       -13.1063   -2.0112   58.7372 C.ar    1  ZINC000151303733   -0.1500
     22 C22       -11.8760   -1.3885   59.2620 C.2     1  ZINC000151303733    0.5600
     23 O23       -11.8470   -0.4787   60.0675 O.2     1  ZINC000151303733   -0.5100
     24 N24       -10.7905   -1.9718   58.7219 N.am    1  ZINC000151303733   -0.5700
     25 C25        -9.3988   -1.6147   59.0080 C.3     1  ZINC000151303733    0.0900
     26 C26        -8.9518   -1.6309   60.4712 C.3     1  ZINC000151303733   -0.1800
     27 C27        -8.4743   -2.7242   59.5133 C.3     1  ZINC000151303733   -0.1900
     28 H28        -9.1954    2.4150   50.6869 H       1  ZINC000151303733    0.0700
     29 H29        -7.5616    1.9543   50.1516 H       1  ZINC000151303733    0.0700
     30 H30        -8.6543    0.7257   50.8333 H       1  ZINC000151303733    0.0600
     31 H31        -6.4027    3.5909   51.7385 H       1  ZINC000151303733    0.1700
     32 H32        -7.8981    1.3665   55.5194 H       1  ZINC000151303733    0.2000
     33 H33        -9.6656    0.1677   52.5015 H       1  ZINC000151303733    0.4200
     34 H34       -11.5210   -0.9628   53.8121 H       1  ZINC000151303733    0.1100
     35 H35       -10.2669   -2.2150   53.9776 H       1  ZINC000151303733    0.1100
     36 H36       -11.7606   -0.9895   56.2220 H       1  ZINC000151303733    0.4100
     37 H37       -13.4137   -4.5374   56.5060 H       1  ZINC000151303733    0.1300
     38 H38       -15.7992   -4.1022   56.9432 H       1  ZINC000151303733    0.1400
     39 H39       -16.4649   -2.3371   58.5209 H       1  ZINC000151303733    0.1400
     40 H40       -14.7559   -0.9961   59.6725 H       1  ZINC000151303733    0.1400
     41 H41        -8.9649   -0.8555   58.3573 H       1  ZINC000151303733    0.1400
     42 H42        -8.2237   -0.8821   60.7833 H       1  ZINC000151303733    0.1000
     43 H43        -9.6931   -1.9071   61.2209 H       1  ZINC000151303733    0.1300
     44 H44        -8.9016   -3.7198   59.6328 H       1  ZINC000151303733    0.1000
     45 H45        -7.4322   -2.6948   59.1952 H       1  ZINC000151303733    0.1000
@<TRIPOS>BOND
     1     1     2    1
     2     1    28    1
     3     1    29    1
     4     1    30    1
     5     2     6    1
     6     2     3    2
     7     3     4    1
     8     3    31    1
     9     4     5    1
    10     5     6    2
    11     5    32    1
    12     6     7    1
    13     7     8   am
    14     7    33    1
    15     8     9    2
    16     8    10    1
    17    10    11    1
    18    10    34    1
    19    10    35    1
    20    11    12   am
    21    11    36    1
    22    12    13    2
    23    12    14    1
    24    14    15    1
    25    14    24    1
    26    14    16    1
    27    16    21   ar
    28    16    17   ar
    29    17    18   ar
    30    17    37    1
    31    18    19   ar
    32    18    38    1
    33    19    20   ar
    34    19    39    1
    35    20    21   ar
    36    20    40    1
    37    21    22    1
    38    22    23    2
    39    22    24   am
    40    24    25    1
    41    25    27    1
    42    25    26    1
    43    25    41    1
    44    26    27    1
    45    26    42    1
    46    26    43    1
    47    27    44    1
    48    27    45    1
@<TRIPOS>SUBSTRUCTURE
     1 ZINC000151303733        1 TEMP              0 ****  ****    0 ROOT


##########                                Name:    ZINC000647468483
##########                DOCK_Rotatable_Bonds:                   5
##########                         Heavy_Atoms:                  24
##########                    Molecular_Weight:             341.373
##########                DOCK_Rotatable_Bonds:                   5
##########                       Formal_Charge:           0.0300004
##########                     HBond_Acceptors:                   6
##########                        HBond_Donors:                   2
##########                         Heavy_Atoms:                  24
##########                          Grid_Score:          -27.301466
##########                     Grid_vdw_energy:          -21.572859
##########                      Grid_es_energy:           -5.728607
##########           Internal_energy_repulsive:           19.285028

@<TRIPOS>MOLECULE
ZINC000647468483
 46 48 1 0 0
SMALL
USER_CHARGES


@<TRIPOS>ATOM
      1 O1        -14.3667   -0.1004   61.6800 O.co2   1  ZINC000647468483   -0.6800
      2 C2        -15.2269    0.3078   60.9185 C.2     1  ZINC000647468483    0.5000
      3 O3        -16.0512    1.1175   61.3075 O.co2   1  ZINC000647468483   -0.6900
      4 C4        -15.2673   -0.1838   59.4944 C.3     1  ZINC000647468483   -0.1500
      5 H5        -16.2536   -0.0220   59.0594 H       1  ZINC000647468483    0.0800
      6 C6        -14.8726   -1.6796   59.4186 C.3     1  ZINC000647468483   -0.1100
      7 C7        -14.3704   -1.8655   57.9719 C.3     1  ZINC000647468483   -0.1400
      8 C8        -13.9230   -0.4778   57.4801 C.3     1  ZINC000647468483    0.0100
      9 H9        -14.5119   -0.1815   56.6121 H       1  ZINC000647468483    0.1400
     10 N10       -12.4954   -0.5025   57.1347 N.4     1  ZINC000647468483   -0.5000
     11 H11       -12.1366    0.4405   57.1199 H       1  ZINC000647468483    0.4200
     12 H12       -11.9924   -1.0431   57.8223 H       1  ZINC000647468483    0.4300
     13 C13       -12.3228   -1.1130   55.8098 C.3     1  ZINC000647468483    0.0200
     14 H14       -13.0945   -1.8641   55.6416 H       1  ZINC000647468483    0.1500
     15 C15       -12.3932   -0.0312   54.7177 C.3     1  ZINC000647468483   -0.1400
     16 C16       -11.0358   -0.0554   53.9852 C.3     1  ZINC000647468483   -0.1300
     17 C17       -10.0584   -0.6716   55.0167 C.3     1  ZINC000647468483   -0.1300
     18 C18       -10.9254   -1.7579   55.7033 C.3     1  ZINC000647468483   -0.0600
     19 H19       -10.9658   -2.6579   55.0896 H       1  ZINC000647468483    0.1300
     20 C20       -10.3830   -2.0784   57.0722 C.ar    1  ZINC000647468483   -0.1200
     21 C21       -10.3123   -3.3915   57.4975 C.ar    1  ZINC000647468483   -0.0700
     22 C22        -9.8147   -3.6856   58.7535 C.ar    1  ZINC000647468483   -0.1000
     23 C23        -9.3874   -2.6663   59.5835 C.ar    1  ZINC000647468483   -0.0600
     24 C24        -9.4574   -1.3528   59.1577 C.ar    1  ZINC000647468483   -0.1600
     25 C25        -8.9920   -0.2415   60.0630 C.3     1  ZINC000647468483    0.5000
     26 F26        -7.7896    0.2831   59.5771 F       1  ZINC000647468483   -0.1700
     27 F27        -9.9604    0.7674   60.0987 F       1  ZINC000647468483   -0.1700
     28 F28        -8.7938   -0.7436   61.3537 F       1  ZINC000647468483   -0.1700
     29 C29        -9.9509   -1.0592   57.9005 C.ar    1  ZINC000647468483   -0.1100
     30 C30       -14.1723    0.5067   58.6441 C.3     1  ZINC000647468483   -0.1200
     31 H31       -14.0770   -1.9008   60.1300 H       1  ZINC000647468483    0.0800
     32 H32       -15.7399   -2.3130   59.6057 H       1  ZINC000647468483    0.0800
     33 H33       -13.5281   -2.5571   57.9550 H       1  ZINC000647468483    0.0700
     34 H34       -15.1764   -2.2428   57.3424 H       1  ZINC000647468483    0.1000
     35 H35       -13.1986   -0.2578   54.0191 H       1  ZINC000647468483    0.1000
     36 H36       -12.5556    0.9468   55.1709 H       1  ZINC000647468483    0.0900
     37 H37       -11.0942   -0.6807   53.0942 H       1  ZINC000647468483    0.0800
     38 H38       -10.7257    0.9561   53.7229 H       1  ZINC000647468483    0.0900
     39 H39        -9.2012   -1.1214   54.5159 H       1  ZINC000647468483    0.0900
     40 H40        -9.7355    0.0784   55.7388 H       1  ZINC000647468483    0.0800
     41 H41       -10.6461   -4.1879   56.8488 H       1  ZINC000647468483    0.1400
     42 H42        -9.7601   -4.7116   59.0860 H       1  ZINC000647468483    0.1500
     43 H43        -8.9995   -2.8960   60.5649 H       1  ZINC000647468483    0.1500
     44 H44       -10.0055   -0.0332   57.5679 H       1  ZINC000647468483    0.1400
     45 H45       -14.5255    1.4652   58.2639 H       1  ZINC000647468483    0.0900
     46 H46       -13.2643    0.6397   59.2323 H       1  ZINC000647468483    0.1000
@<TRIPOS>BOND
     1     1     2   ar
     2     2     3   ar
     3     2     4    1
     4     4     5    1
     5     4    30    1
     6     4     6    1
     7     6     7    1
     8     6    31    1
     9     6    32    1
    10     7     8    1
    11     7    33    1
    12     7    34    1
    13     8     9    1
    14     8    10    1
    15     8    30    1
    16    10    11    1
    17    10    12    1
    18    10    13    1
    19    13    14    1
    20    13    18    1
    21    13    15    1
    22    15    16    1
    23    15    35    1
    24    15    36    1
    25    16    17    1
    26    16    37    1
    27    16    38    1
    28    17    18    1
    29    17    39    1
    30    17    40    1
    31    18    19    1
    32    18    20    1
    33    20    29   ar
    34    20    21   ar
    35    21    22   ar
    36    21    41    1
    37    22    23   ar
    38    22    42    1
    39    23    24   ar
    40    23    43    1
    41    24    25    1
    42    24    29   ar
    43    25    26    1
    44    25    27    1
    45    25    28    1
    46    29    44    1
    47    30    45    1
    48    30    46    1
@<TRIPOS>SUBSTRUCTURE
     1 ZINC000647468483        1 TEMP              0 ****  ****    0 ROOT


##########                                Name:    ZINC000455156110
##########                DOCK_Rotatable_Bonds:                   4
##########                         Heavy_Atoms:                  27
##########                    Molecular_Weight:             370.424
##########                DOCK_Rotatable_Bonds:                   4
##########                       Formal_Charge:           0.0100002
##########                     HBond_Acceptors:                   6
##########                        HBond_Donors:                   1
##########                         Heavy_Atoms:                  27
##########                          Grid_Score:          -27.268814
##########                     Grid_vdw_energy:          -27.599489
##########                      Grid_es_energy:            0.330674
##########           Internal_energy_repulsive:           53.633221

@<TRIPOS>MOLECULE
ZINC000455156110
 50 53 1 0 0
SMALL
USER_CHARGES


@<TRIPOS>ATOM
      1 C1         -9.7466   -2.0441   60.5649 C.3     1  ZINC000455156110    0.0300
      2 O2        -10.1685   -2.5627   59.3018 O.3     1  ZINC000455156110   -0.3100
      3 C3         -9.9756   -1.7701   58.2132 C.ar    1  ZINC000455156110    0.0900
      4 C4        -10.3663   -2.2097   56.9582 C.ar    1  ZINC000455156110   -0.1600
      5 C5        -10.1710   -1.4053   55.8518 C.ar    1  ZINC000455156110   -0.0800
      6 C6        -10.5957   -1.8847   54.4877 C.3     1  ZINC000455156110   -0.1100
      7 C7         -9.5841   -0.1559   55.9964 C.ar    1  ZINC000455156110    0.1500
      8 N8         -9.3871    0.6599   54.8741 N.am    1  ZINC000455156110   -0.6700
      9 C9         -8.1649    0.7507   54.3133 C.2     1  ZINC000455156110    0.7200
     10 O10        -7.2333    0.1247   54.7810 O.2     1  ZINC000455156110   -0.5500
     11 N11        -7.9754    1.5354   53.2340 N.am    1  ZINC000455156110   -0.5600
     12 C12        -6.6982    1.7098   52.5347 C.3     1  ZINC000455156110    0.1000
     13 C13        -7.0012    2.6856   51.3912 C.3     1  ZINC000455156110   -0.0200
     14 C14        -6.1623    3.9527   51.5402 C.3     1  ZINC000455156110   -0.1400
     15 C15        -4.6831    3.6016   51.3526 C.3     1  ZINC000455156110    0.0600
     16 O16        -4.5014    2.9792   50.0791 O.3     1  ZINC000455156110   -0.3800
     17 C17        -5.2189    1.7537   49.9184 C.3     1  ZINC000455156110    0.0600
     18 C18        -6.7214    2.0247   50.0434 C.3     1  ZINC000455156110   -0.1400
     19 C19        -8.4688    3.0044   51.5281 C.ar    1  ZINC000455156110   -0.1300
     20 C20        -9.2968    3.8230   50.7845 C.ar    1  ZINC000455156110   -0.0700
     21 C21       -10.6325    3.9491   51.1186 C.ar    1  ZINC000455156110   -0.1400
     22 C22       -11.1398    3.2534   52.2004 C.ar    1  ZINC000455156110   -0.0900
     23 C23       -10.3175    2.4359   52.9463 C.ar    1  ZINC000455156110   -0.1300
     24 C24        -8.9695    2.2985   52.6123 C.ar    1  ZINC000455156110    0.1600
     25 C25        -9.1928    0.2858   57.2534 C.ar    1  ZINC000455156110   -0.1200
     26 C26        -9.3925   -0.5176   58.3605 C.ar    1  ZINC000455156110    0.0900
     27 F27        -9.0126   -0.0887   59.5840 F       1  ZINC000455156110   -0.1300
     28 H28        -9.9575   -2.7742   61.3462 H       1  ZINC000455156110    0.1000
     29 H29        -8.6758   -1.8424   60.5354 H       1  ZINC000455156110    0.0600
     30 H30       -10.2846   -1.1200   60.7762 H       1  ZINC000455156110    0.0600
     31 H31       -10.8234   -3.1817   56.8449 H       1  ZINC000455156110    0.1400
     32 H32       -11.6256   -1.5807   54.3000 H       1  ZINC000455156110    0.0800
     33 H33        -9.9444   -1.4486   53.7302 H       1  ZINC000455156110    0.0600
     34 H34       -10.5244   -2.9716   54.4460 H       1  ZINC000455156110    0.0800
     35 H35       -10.1302    1.1592   54.5010 H       1  ZINC000455156110    0.4100
     36 H36        -5.9530    2.1344   53.2075 H       1  ZINC000455156110    0.0800
     37 H37        -6.3509    0.7563   52.1369 H       1  ZINC000455156110    0.0900
     38 H38        -6.4627    4.6793   50.7853 H       1  ZINC000455156110    0.0800
     39 H39        -6.3134    4.3749   52.5337 H       1  ZINC000455156110    0.0800
     40 H40        -4.0844    4.5111   51.4016 H       1  ZINC000455156110    0.1000
     41 H41        -4.3693    2.9165   52.1403 H       1  ZINC000455156110    0.0500
     42 H42        -5.0056    1.3337   48.9354 H       1  ZINC000455156110    0.1000
     43 H43        -4.9112    1.0481   50.6903 H       1  ZINC000455156110    0.0500
     44 H44        -7.2678    1.0838   49.9786 H       1  ZINC000455156110    0.0800
     45 H45        -7.0400    2.6881   49.2394 H       1  ZINC000455156110    0.0800
     46 H46        -8.8995    4.3663   49.9400 H       1  ZINC000455156110    0.1300
     47 H47       -11.2779    4.5898   50.5362 H       1  ZINC000455156110    0.1300
     48 H48       -12.1831    3.3510   52.4621 H       1  ZINC000455156110    0.1300
     49 H49       -10.7196    1.8955   53.7906 H       1  ZINC000455156110    0.1400
     50 H50        -8.7361    1.2579   57.3666 H       1  ZINC000455156110    0.1700
@<TRIPOS>BOND
     1     1     2    1
     2     1    28    1
     3     1    29    1
     4     1    30    1
     5     2     3    1
     6     3    26   ar
     7     3     4   ar
     8     4     5   ar
     9     4    31    1
    10     5     6    1
    11     5     7   ar
    12     6    32    1
    13     6    33    1
    14     6    34    1
    15     7     8    1
    16     7    25   ar
    17     8     9   am
    18     8    35    1
    19     9    10    2
    20     9    11   am
    21    11    24    1
    22    11    12    1
    23    12    13    1
    24    12    36    1
    25    12    37    1
    26    13    18    1
    27    13    14    1
    28    13    19    1
    29    14    15    1
    30    14    38    1
    31    14    39    1
    32    15    16    1
    33    15    40    1
    34    15    41    1
    35    16    17    1
    36    17    18    1
    37    17    42    1
    38    17    43    1
    39    18    44    1
    40    18    45    1
    41    19    24   ar
    42    19    20   ar
    43    20    21   ar
    44    20    46    1
    45    21    22   ar
    46    21    47    1
    47    22    23   ar
    48    22    48    1
    49    23    24   ar
    50    23    49    1
    51    25    26   ar
    52    25    50    1
    53    26    27    1
@<TRIPOS>SUBSTRUCTURE
     1 ZINC000455156110        1 TEMP              0 ****  ****    0 ROOT


##########                                Name:    ZINC000506388363
##########                DOCK_Rotatable_Bonds:                   5
##########                         Heavy_Atoms:                  29
##########                    Molecular_Weight:             416.858
##########                DOCK_Rotatable_Bonds:                   5
##########                       Formal_Charge:         7.07805e-07
##########                     HBond_Acceptors:                   8
##########                        HBond_Donors:                   1
##########                         Heavy_Atoms:                  29
##########                          Grid_Score:          -27.265408
##########                     Grid_vdw_energy:          -27.135555
##########                      Grid_es_energy:           -0.129853
##########           Internal_energy_repulsive:           17.188944

@<TRIPOS>MOLECULE
ZINC000506388363
 48 51 1 0 0
SMALL
USER_CHARGES


@<TRIPOS>ATOM
      1 O1         -6.3569    4.4341   50.4941 O.2     1  ZINC000506388363   -0.5300
      2 C2         -5.9557    3.2916   50.5997 C.2     1  ZINC000506388363    0.5600
      3 C3         -4.5072    3.0065   50.5205 C.ar    1  ZINC000506388363   -0.1200
      4 C4         -4.0150    2.1461   49.5380 C.ar    1  ZINC000506388363   -0.0900
      5 C5         -2.6620    1.8842   49.4686 C.ar    1  ZINC000506388363   -0.1100
      6 C6         -1.7934    2.4716   50.3706 C.ar    1  ZINC000506388363   -0.0900
      7 C7         -2.2746    3.3263   51.3483 C.ar    1  ZINC000506388363   -0.0400
      8 Cl8        -1.1764    4.0591   52.4755 Cl      1  ZINC000506388363   -0.0600
      9 C9         -3.6255    3.6010   51.4246 C.ar    1  ZINC000506388363   -0.0600
     10 N10        -6.8310    2.2853   50.7944 N.am    1  ZINC000506388363   -0.6100
     11 C11        -6.3659    0.8973   50.9369 C.3     1  ZINC000506388363    0.1000
     12 C12        -6.9889    0.3028   52.2045 C.3     1  ZINC000506388363    0.0400
     13 N13        -8.4478    0.4669   52.1525 N.3     1  ZINC000506388363   -0.5300
     14 C14        -9.0969   -0.2404   53.2643 C.3     1  ZINC000506388363    0.1200
     15 C15       -10.5729    0.0641   53.2598 C.2     1  ZINC000506388363   -0.2100
     16 C16       -11.3669    0.1367   52.1693 C.2     1  ZINC000506388363    0.0600
     17 N17       -12.6182    0.4300   52.5836 N.pl3   1  ZINC000506388363   -0.4700
     18 N18       -12.6002    0.5434   53.9795 N.2     1  ZINC000506388363   -0.2700
     19 C19       -11.3710    0.3177   54.3925 C.2     1  ZINC000506388363    0.1300
     20 C20       -10.9058    0.3375   55.8015 C.ar    1  ZINC000506388363   -0.0700
     21 C21       -10.3740    1.5061   56.3473 C.ar    1  ZINC000506388363    0.1500
     22 F22       -10.2814    2.6239   55.5943 F       1  ZINC000506388363   -0.1200
     23 C23        -9.9424    1.5177   57.6608 C.ar    1  ZINC000506388363   -0.1600
     24 C24       -10.0369    0.3745   58.4331 C.ar    1  ZINC000506388363   -0.0500
     25 C25       -10.5631   -0.7871   57.8981 C.ar    1  ZINC000506388363   -0.1600
     26 C26       -11.0037   -0.8107   56.5878 C.ar    1  ZINC000506388363    0.1600
     27 F27       -11.5174   -1.9462   56.0665 F       1  ZINC000506388363   -0.1200
     28 C28        -8.8243    1.8868   52.1402 C.3     1  ZINC000506388363    0.0400
     29 C29        -8.2760    2.5470   50.8762 C.3     1  ZINC000506388363    0.1200
     30 H30        -4.6920    1.6861   48.8334 H       1  ZINC000506388363    0.1400
     31 H31        -2.2805    1.2185   48.7085 H       1  ZINC000506388363    0.1400
     32 H32        -0.7354    2.2625   50.3124 H       1  ZINC000506388363    0.1400
     33 H33        -4.0000    4.2679   52.1870 H       1  ZINC000506388363    0.1400
     34 H34        -6.6769    0.3160   50.0688 H       1  ZINC000506388363    0.0800
     35 H35        -5.2793    0.8820   51.0211 H       1  ZINC000506388363    0.1000
     36 H36        -6.7441   -0.7575   52.2672 H       1  ZINC000506388363    0.0900
     37 H37        -6.5958    0.8198   53.0798 H       1  ZINC000506388363    0.0400
     38 H38        -8.9470   -1.3138   53.1491 H       1  ZINC000506388363    0.1000
     39 H39        -8.6611    0.0882   54.2078 H       1  ZINC000506388363    0.0400
     40 H40       -11.0555   -0.0131   51.1461 H       1  ZINC000506388363    0.1800
     41 H41       -13.3947    0.5430   52.0133 H       1  ZINC000506388363    0.4400
     42 H42        -9.5302    2.4217   58.0845 H       1  ZINC000506388363    0.1500
     43 H43        -9.6981    0.3888   59.4584 H       1  ZINC000506388363    0.1500
     44 H44       -10.6338   -1.6767   58.5064 H       1  ZINC000506388363    0.1500
     45 H45        -9.9106    1.9751   52.1565 H       1  ZINC000506388363    0.0900
     46 H46        -8.4055    2.3816   53.0165 H       1  ZINC000506388363    0.0400
     47 H47        -8.4534    3.6216   50.9179 H       1  ZINC000506388363    0.1000
     48 H48        -8.7685    2.1254   49.9999 H       1  ZINC000506388363    0.0800
@<TRIPOS>BOND
     1     1     2    2
     2     2     3    1
     3     2    10   am
     4     3     9   ar
     5     3     4   ar
     6     4     5   ar
     7     4    30    1
     8     5     6   ar
     9     5    31    1
    10     6     7   ar
    11     6    32    1
    12     7     8    1
    13     7     9   ar
    14     9    33    1
    15    10    29    1
    16    10    11    1
    17    11    12    1
    18    11    34    1
    19    11    35    1
    20    12    13    1
    21    12    36    1
    22    12    37    1
    23    13    14    1
    24    13    28    1
    25    14    15    1
    26    14    38    1
    27    14    39    1
    28    15    19    1
    29    15    16    2
    30    16    17    1
    31    16    40    1
    32    17    18    1
    33    17    41    1
    34    18    19    2
    35    19    20    1
    36    20    26   ar
    37    20    21   ar
    38    21    22    1
    39    21    23   ar
    40    23    24   ar
    41    23    42    1
    42    24    25   ar
    43    24    43    1
    44    25    26   ar
    45    25    44    1
    46    26    27    1
    47    28    29    1
    48    28    45    1
    49    28    46    1
    50    29    47    1
    51    29    48    1
@<TRIPOS>SUBSTRUCTURE
     1 ZINC000506388363        1 TEMP              0 ****  ****    0 ROOT


##########                                Name:    ZINC000790735374
##########                DOCK_Rotatable_Bonds:                   5
##########                         Heavy_Atoms:                  25
##########                    Molecular_Weight:             353.445
##########                DOCK_Rotatable_Bonds:                   5
##########                       Formal_Charge:                   0
##########                     HBond_Acceptors:                   6
##########                        HBond_Donors:                   1
##########                         Heavy_Atoms:                  25
##########                          Grid_Score:          -27.237553
##########                     Grid_vdw_energy:          -27.113342
##########                      Grid_es_energy:           -0.124210
##########           Internal_energy_repulsive:            9.431885

@<TRIPOS>MOLECULE
ZINC000790735374
 44 47 1 0 0
SMALL
USER_CHARGES


@<TRIPOS>ATOM
      1 O1         -7.8915    0.0290   51.5707 O.2     1  ZINC000790735374   -0.5100
      2 C2         -8.2131    1.1946   51.6642 C.2     1  ZINC000790735374    0.5000
      3 N3         -7.4213    2.1556   51.1483 N.am    1  ZINC000790735374   -0.7200
      4 C4         -6.1692    1.7924   50.4800 C.3     1  ZINC000790735374    0.1400
      5 C5         -5.2102    2.9842   50.5109 C.3     1  ZINC000790735374   -0.0300
      6 H6         -5.5176    3.7137   49.7616 H       1  ZINC000790735374    0.1100
      7 S7         -5.2618    3.7528   52.1525 S.3     1  ZINC000790735374   -0.2400
      8 C8         -3.7872    4.8181   52.0788 C.3     1  ZINC000790735374   -0.0800
      9 C9         -2.5694    3.9155   51.9473 C.3     1  ZINC000790735374   -0.0800
     10 C10        -2.6673    2.9365   50.8120 C.ar    1  ZINC000790735374   -0.0700
     11 C11        -1.4381    2.4330   50.3730 C.ar    1  ZINC000790735374   -0.1200
     12 C12        -1.3604    1.5151   49.3522 C.ar    1  ZINC000790735374   -0.1100
     13 C13        -2.5207    1.0739   48.7435 C.ar    1  ZINC000790735374   -0.1200
     14 C14        -3.7328    1.5696   49.1665 C.ar    1  ZINC000790735374   -0.1100
     15 C15        -3.8127    2.5083   50.2003 C.ar    1  ZINC000790735374   -0.0800
     16 C16        -9.5011    1.5682   52.3516 C.3     1  ZINC000790735374    0.0300
     17 H17       -10.3497    1.4474   51.6781 H       1  ZINC000790735374    0.1500
     18 C18        -9.6985    0.7421   53.6449 C.3     1  ZINC000790735374   -0.1400
     19 C19        -9.1145    1.6516   54.7093 C.2     1  ZINC000790735374    0.1200
     20 C20        -8.7461    1.2514   56.0819 C.ar    1  ZINC000790735374   -0.1000
     21 C21        -8.2031    2.1840   56.9738 C.ar    1  ZINC000790735374   -0.0400
     22 C22        -7.8752    1.7580   58.2491 C.ar    1  ZINC000790735374   -0.1700
     23 C23        -8.0922    0.4376   58.5985 C.ar    1  ZINC000790735374    0.1200
     24 N24        -8.6057   -0.4198   57.7371 N.ar    1  ZINC000790735374   -0.4800
     25 C25        -8.9388   -0.0620   56.5145 C.ar    1  ZINC000790735374    0.1400
     26 N26        -8.9949    2.8353   54.2088 N.2     1  ZINC000790735374   -0.2700
     27 O27        -9.4393    2.9133   52.8679 O.3     1  ZINC000790735374   -0.1600
     28 H28        -7.6803    3.0876   51.2196 H       1  ZINC000790735374    0.4100
     29 H29        -5.7143    0.9466   50.9954 H       1  ZINC000790735374    0.0800
     30 H30        -6.3757    1.5190   49.4452 H       1  ZINC000790735374    0.0900
     31 H31        -3.8520    5.4793   51.2146 H       1  ZINC000790735374    0.0900
     32 H32        -3.7123    5.4087   52.9919 H       1  ZINC000790735374    0.1100
     33 H33        -1.6882    4.5387   51.7955 H       1  ZINC000790735374    0.0900
     34 H34        -2.4447    3.3603   52.8769 H       1  ZINC000790735374    0.0900
     35 H35        -0.5291    2.7733   50.8467 H       1  ZINC000790735374    0.1200
     36 H36        -0.4003    1.1419   49.0281 H       1  ZINC000790735374    0.1300
     37 H37        -2.4762    0.3484   47.9447 H       1  ZINC000790735374    0.1300
     38 H38        -4.6398    1.2250   48.6924 H       1  ZINC000790735374    0.1300
     39 H39       -10.7571    0.5600   53.8300 H       1  ZINC000790735374    0.1200
     40 H40        -9.1467   -0.1964   53.5926 H       1  ZINC000790735374    0.1100
     41 H41        -8.0437    3.2093   56.6743 H       1  ZINC000790735374    0.1500
     42 H42        -7.4539    2.4494   58.9638 H       1  ZINC000790735374    0.1500
     43 H43        -7.8368    0.1025   59.5931 H       1  ZINC000790735374    0.1600
     44 H44        -9.3569   -0.7926   55.8378 H       1  ZINC000790735374    0.1600
@<TRIPOS>BOND
     1     1     2    2
     2     2     3   am
     3     2    16    1
     4     3     4    1
     5     3    28    1
     6     4     5    1
     7     4    29    1
     8     4    30    1
     9     5     6    1
    10     5    15    1
    11     5     7    1
    12     7     8    1
    13     8     9    1
    14     8    31    1
    15     8    32    1
    16     9    10    1
    17     9    33    1
    18     9    34    1
    19    10    15   ar
    20    10    11   ar
    21    11    12   ar
    22    11    35    1
    23    12    13   ar
    24    12    36    1
    25    13    14   ar
    26    13    37    1
    27    14    15   ar
    28    14    38    1
    29    16    17    1
    30    16    27    1
    31    16    18    1
    32    18    19    1
    33    18    39    1
    34    18    40    1
    35    19    20    1
    36    19    26    2
    37    20    25   ar
    38    20    21   ar
    39    21    22   ar
    40    21    41    1
    41    22    23   ar
    42    22    42    1
    43    23    24   ar
    44    23    43    1
    45    24    25   ar
    46    25    44    1
    47    26    27    1
@<TRIPOS>SUBSTRUCTURE
     1 ZINC000790735374        1 TEMP              0 ****  ****    0 ROOT


##########                                Name:    ZINC000441887161
##########                DOCK_Rotatable_Bonds:                   6
##########                         Heavy_Atoms:                  27
##########                    Molecular_Weight:             383.514
##########                DOCK_Rotatable_Bonds:                   6
##########                       Formal_Charge:          -0.0300002
##########                     HBond_Acceptors:                   6
##########                        HBond_Donors:                   1
##########                         Heavy_Atoms:                  27
##########                          Grid_Score:          -27.224264
##########                     Grid_vdw_energy:          -26.564116
##########                      Grid_es_energy:           -0.660148
##########           Internal_energy_repulsive:           16.562605

@<TRIPOS>MOLECULE
ZINC000441887161
 52 54 1 0 0
SMALL
USER_CHARGES


@<TRIPOS>ATOM
      1 C1         -7.9128   -0.5073   52.3110 C.3     1  ZINC000441887161   -0.1200
      2 C2         -8.4292   -0.3238   53.7148 C.ar    1  ZINC000441887161   -0.0700
      3 C3         -9.5347   -1.0344   54.1429 C.ar    1  ZINC000441887161   -0.1200
      4 C4        -10.0083   -0.8660   55.4309 C.ar    1  ZINC000441887161   -0.0900
      5 C5         -9.3762    0.0124   56.2905 C.ar    1  ZINC000441887161   -0.1100
      6 C6         -9.8928    0.1963   57.6941 C.3     1  ZINC000441887161    0.1900
      7 H7         -9.0650    0.4529   58.3553 H       1  ZINC000441887161    0.1000
      8 C8        -10.9285    1.3222   57.7130 C.3     1  ZINC000441887161    0.1000
      9 N9        -12.0620    0.9574   56.8594 N.pl3   1  ZINC000441887161   -0.4600
     10 C10       -12.2475    1.3259   55.5542 C.2     1  ZINC000441887161   -0.0500
     11 C11       -13.4102    0.7755   55.1554 C.2     1  ZINC000441887161   -0.0200
     12 N12       -13.9206    0.0898   56.1890 N.2     1  ZINC000441887161   -0.4900
     13 C13       -13.1160    0.1901   57.2115 C.2     1  ZINC000441887161    0.1800
     14 N14       -10.5157   -1.0481   58.1521 N.am    1  ZINC000441887161   -1.1100
     15 S15        -9.9325   -1.8205   59.4958 S.o2    1  ZINC000441887161    2.6900
     16 O16       -10.8279   -2.8907   59.7638 O.2     1  ZINC000441887161   -0.9600
     17 O17        -8.5406   -2.0073   59.2787 O.2     1  ZINC000441887161   -0.9500
     18 C18       -10.0791   -0.6989   60.8468 C.ar    1  ZINC000441887161   -0.6800
     19 C19       -11.2481    0.0157   61.0281 C.ar    1  ZINC000441887161   -0.0300
     20 C20       -11.3632    0.8958   62.0881 C.ar    1  ZINC000441887161   -0.1300
     21 C21       -10.3092    1.0606   62.9669 C.ar    1  ZINC000441887161   -0.0200
     22 C22       -10.4344    2.0203   64.1221 C.3     1  ZINC000441887161   -0.1300
     23 C23        -9.1402    0.3448   62.7864 C.ar    1  ZINC000441887161   -0.1000
     24 C24        -7.9912    0.5242   63.7448 C.3     1  ZINC000441887161   -0.1200
     25 C25        -9.0267   -0.5378   61.7289 C.ar    1  ZINC000441887161   -0.0100
     26 C26        -8.2695    0.7222   55.8627 C.ar    1  ZINC000441887161   -0.0700
     27 C27        -7.5799    1.6797   56.8000 C.3     1  ZINC000441887161   -0.1300
     28 C28        -7.7937    0.5511   54.5763 C.ar    1  ZINC000441887161   -0.1200
     29 H29        -7.1788   -1.3130   52.2962 H       1  ZINC000441887161    0.0700
     30 H30        -8.7415   -0.7585   51.6490 H       1  ZINC000441887161    0.0700
     31 H31        -7.4446    0.4170   51.9724 H       1  ZINC000441887161    0.0700
     32 H32       -10.0287   -1.7209   53.4713 H       1  ZINC000441887161    0.1200
     33 H33       -10.8727   -1.4208   55.7651 H       1  ZINC000441887161    0.1200
     34 H34       -11.2777    1.4777   58.7337 H       1  ZINC000441887161    0.1100
     35 H35       -10.4740    2.2403   57.3406 H       1  ZINC000441887161    0.1000
     36 H36       -11.5884    1.9402   54.9587 H       1  ZINC000441887161    0.1700
     37 H37       -13.8537    0.8699   54.1753 H       1  ZINC000441887161    0.1600
     38 H38       -13.2706   -0.2604   58.1808 H       1  ZINC000441887161    0.2000
     39 H39       -11.2699   -1.4196   57.6682 H       1  ZINC000441887161    0.4200
     40 H40       -12.0717   -0.1132   60.3414 H       1  ZINC000441887161    0.1300
     41 H41       -12.2765    1.4547   62.2293 H       1  ZINC000441887161    0.1300
     42 H42       -10.8364    1.4953   64.9886 H       1  ZINC000441887161    0.0800
     43 H43        -9.4522    2.4252   64.3661 H       1  ZINC000441887161    0.0800
     44 H44       -11.1049    2.8344   63.8471 H       1  ZINC000441887161    0.0700
     45 H45        -8.0864   -0.1888   64.5638 H       1  ZINC000441887161    0.0800
     46 H46        -7.0509    0.3524   63.2211 H       1  ZINC000441887161    0.0700
     47 H47        -8.0052    1.5388   64.1430 H       1  ZINC000441887161    0.0700
     48 H48        -8.1135   -1.0969   61.5879 H       1  ZINC000441887161    0.1400
     49 H49        -6.8014    1.1517   57.3507 H       1  ZINC000441887161    0.0800
     50 H50        -7.1323    2.4911   56.2261 H       1  ZINC000441887161    0.0700
     51 H51        -8.3072    2.0889   57.5012 H       1  ZINC000441887161    0.0600
     52 H52        -6.9291    1.1055   54.2422 H       1  ZINC000441887161    0.1300
@<TRIPOS>BOND
     1     1     2    1
     2     1    29    1
     3     1    30    1
     4     1    31    1
     5     2    28   ar
     6     2     3   ar
     7     3     4   ar
     8     3    32    1
     9     4     5   ar
    10     4    33    1
    11     5     6    1
    12     5    26   ar
    13     6     7    1
    14     6     8    1
    15     6    14    1
    16     8     9    1
    17     8    34    1
    18     8    35    1
    19     9    13    1
    20     9    10    1
    21    10    11    2
    22    10    36    1
    23    11    12    1
    24    11    37    1
    25    12    13    2
    26    13    38    1
    27    14    15   am
    28    14    39    1
    29    15    16    2
    30    15    17    2
    31    15    18    1
    32    18    25   ar
    33    18    19   ar
    34    19    20   ar
    35    19    40    1
    36    20    21   ar
    37    20    41    1
    38    21    22    1
    39    21    23   ar
    40    22    42    1
    41    22    43    1
    42    22    44    1
    43    23    24    1
    44    23    25   ar
    45    24    45    1
    46    24    46    1
    47    24    47    1
    48    25    48    1
    49    26    27    1
    50    26    28   ar
    51    27    49    1
    52    27    50    1
    53    27    51    1
    54    28    52    1
@<TRIPOS>SUBSTRUCTURE
     1 ZINC000441887161        1 TEMP              0 ****  ****    0 ROOT


##########                                Name:    ZINC000937331732
##########                DOCK_Rotatable_Bonds:                   6
##########                         Heavy_Atoms:                  24
##########                    Molecular_Weight:              333.35
##########                DOCK_Rotatable_Bonds:                   6
##########                       Formal_Charge:          -0.0299999
##########                     HBond_Acceptors:                  10
##########                        HBond_Donors:                   1
##########                         Heavy_Atoms:                  24
##########                          Grid_Score:          -27.205032
##########                     Grid_vdw_energy:          -23.607208
##########                      Grid_es_energy:           -3.597825
##########           Internal_energy_repulsive:           24.057554

@<TRIPOS>MOLECULE
ZINC000937331732
 43 45 1 0 0
SMALL
USER_CHARGES


@<TRIPOS>ATOM
      1 C1        -10.7836    0.7100   58.3419 C.3     1  ZINC000937331732    0.0600
      2 N2        -10.1743   -0.5586   58.7487 N.am    1  ZINC000937331732   -0.6100
      3 C3         -9.9869   -1.5376   57.8416 C.2     1  ZINC000937331732    0.5000
      4 O4         -9.4810   -2.5873   58.1779 O.2     1  ZINC000937331732   -0.5200
      5 C5        -10.4057   -1.3279   56.4092 C.3     1  ZINC000937331732    0.1500
      6 N6         -9.3367   -0.6369   55.6840 N.am    1  ZINC000937331732   -0.4400
      7 N7         -8.3489    0.1846   56.2444 N.2     1  ZINC000937331732   -0.2800
      8 C8         -7.5887    0.6105   55.2878 C.2     1  ZINC000937331732    0.2600
      9 N9         -8.0420    0.0947   54.0981 N.am    1  ZINC000937331732   -0.5600
     10 C10        -7.4539    0.3375   52.7785 C.3     1  ZINC000937331732    0.1000
     11 C11        -9.1169   -0.6780   54.3531 C.2     1  ZINC000937331732    0.6500
     12 O12        -9.7737   -1.2935   53.5324 O.2     1  ZINC000937331732   -0.5500
     13 C13        -9.7687   -0.7631   60.1415 C.3     1  ZINC000937331732    0.1300
     14 H14        -9.5962   -1.8209   60.3401 H       1  ZINC000937331732    0.1200
     15 C15        -8.5030    0.0711   60.4728 C.3     1  ZINC000937331732   -0.1500
     16 C16        -8.6531    0.2698   62.0018 C.3     1  ZINC000937331732    0.1000
     17 N17       -10.1005    0.4468   62.2191 N.am    1  ZINC000937331732   -0.6000
     18 C18       -10.6658    1.0847   63.2631 C.2     1  ZINC000937331732    0.6200
     19 O19       -11.8764    1.1697   63.3405 O.2     1  ZINC000937331732   -0.5400
     20 C20        -9.8166    1.6796   64.3110 C.2     1  ZINC000937331732    0.1400
     21 N21       -10.2118    2.5337   65.2310 N.2     1  ZINC000937331732   -0.4400
     22 C22        -9.1756    2.8518   66.0035 C.2     1  ZINC000937331732   -0.0300
     23 C23        -8.0878    2.1767   65.5579 C.2     1  ZINC000937331732   -0.0200
     24 N24        -8.4852    1.4343   64.4975 N.pl3   1  ZINC000937331732   -0.5200
     25 C25       -10.8273   -0.1915   61.1079 C.3     1  ZINC000937331732    0.1000
     26 H26       -11.8657    0.6467   58.4566 H       1  ZINC000937331732    0.0700
     27 H27       -10.3985    1.5153   58.9676 H       1  ZINC000937331732    0.0800
     28 H28       -10.5400    0.9122   57.2988 H       1  ZINC000937331732    0.0800
     29 H29       -10.5967   -2.2937   55.9414 H       1  ZINC000937331732    0.1300
     30 H30       -11.3130   -0.7245   56.3806 H       1  ZINC000937331732    0.1300
     31 H31        -6.7373    1.2646   55.4053 H       1  ZINC000937331732    0.2300
     32 H32        -6.5920    0.9969   52.8805 H       1  ZINC000937331732    0.1000
     33 H33        -7.1370   -0.6098   52.3421 H       1  ZINC000937331732    0.0800
     34 H34        -8.1951    0.8059   52.1310 H       1  ZINC000937331732    0.0800
     35 H35        -7.5958   -0.4857   60.2383 H       1  ZINC000937331732    0.0900
     36 H36        -8.5182    1.0280   59.9511 H       1  ZINC000937331732    0.0800
     37 H37        -8.2941   -0.6100   62.5357 H       1  ZINC000937331732    0.0800
     38 H38        -8.1098    1.1581   62.3239 H       1  ZINC000937331732    0.1100
     39 H39        -9.1977    3.5318   66.8423 H       1  ZINC000937331732    0.1800
     40 H40        -7.0918    2.2201   65.9730 H       1  ZINC000937331732    0.1900
     41 H41        -7.9281    0.8438   63.9665 H       1  ZINC000937331732    0.4300
     42 H42       -11.4373    0.5488   60.5903 H       1  ZINC000937331732    0.0800
     43 H43       -11.4589   -0.9934   61.4903 H       1  ZINC000937331732    0.0800
@<TRIPOS>BOND
     1     1     2    1
     2     1    26    1
     3     1    27    1
     4     1    28    1
     5     2     3   am
     6     2    13    1
     7     3     4    2
     8     3     5    1
     9     5     6    1
    10     5    29    1
    11     5    30    1
    12     6    11   am
    13     6     7    1
    14     7     8    2
    15     8     9    1
    16     8    31    1
    17     9    10    1
    18     9    11   am
    19    10    32    1
    20    10    33    1
    21    10    34    1
    22    11    12    2
    23    13    14    1
    24    13    25    1
    25    13    15    1
    26    15    16    1
    27    15    35    1
    28    15    36    1
    29    16    17    1
    30    16    37    1
    31    16    38    1
    32    17    18   am
    33    17    25    1
    34    18    19    2
    35    18    20    1
    36    20    24    1
    37    20    21    2
    38    21    22    1
    39    22    23    2
    40    22    39    1
    41    23    24    1
    42    23    40    1
    43    24    41    1
    44    25    42    1
    45    25    43    1
@<TRIPOS>SUBSTRUCTURE
     1 ZINC000937331732        1 TEMP              0 ****  ****    0 ROOT


##########                                Name:    ZINC001300804061
##########                DOCK_Rotatable_Bonds:                   5
##########                         Heavy_Atoms:                  27
##########                    Molecular_Weight:              390.55
##########                DOCK_Rotatable_Bonds:                   5
##########                       Formal_Charge:                0.01
##########                     HBond_Acceptors:                   7
##########                        HBond_Donors:                   0
##########                         Heavy_Atoms:                  27
##########                          Grid_Score:          -27.193764
##########                     Grid_vdw_energy:          -27.378077
##########                      Grid_es_energy:            0.184313
##########           Internal_energy_repulsive:           17.250263

@<TRIPOS>MOLECULE
ZINC001300804061
 57 60 1 0 0
SMALL
USER_CHARGES


@<TRIPOS>ATOM
      1 C1        -11.6201   -1.0992   54.7771 C.3     1  ZINC001300804061    0.0300
      2 O2        -10.8324   -0.1974   53.9971 O.3     1  ZINC001300804061   -0.3800
      3 C3         -9.5349    0.0585   54.5383 C.3     1  ZINC001300804061    0.1000
      4 H4         -9.0568   -0.8857   54.7994 H       1  ZINC001300804061    0.0700
      5 C5         -9.6661    0.9282   55.7905 C.3     1  ZINC001300804061    0.0500
      6 N6         -8.3315    1.2090   56.3351 N.3     1  ZINC001300804061   -0.4600
      7 C7         -8.4195    1.8839   57.5408 C.2     1  ZINC001300804061    0.3600
      8 N8         -8.6258    3.1711   57.6992 N.2     1  ZINC001300804061   -0.3000
      9 N9         -8.6516    3.4649   58.9499 N.2     1  ZINC001300804061   -0.2500
     10 C10        -8.4627    2.3801   59.6689 C.2     1  ZINC001300804061    0.2600
     11 C11        -8.4238    2.2993   61.1375 C.2     1  ZINC001300804061    0.0400
     12 C12        -8.6366    3.3311   62.0016 C.2     1  ZINC001300804061   -0.1300
     13 C13        -8.5030    2.8054   63.3013 C.2     1  ZINC001300804061   -0.2100
     14 C14        -8.2188    1.4944   63.1705 C.2     1  ZINC001300804061    0.0100
     15 C15        -7.9914    0.5280   64.3043 C.3     1  ZINC001300804061   -0.0800
     16 O16        -8.1773    1.1904   61.8628 O.3     1  ZINC001300804061   -0.1700
     17 N17        -8.3138    1.3332   58.7864 N.pl3   1  ZINC001300804061   -0.4600
     18 C18        -8.0819   -0.0755   59.1149 C.3     1  ZINC001300804061    0.1200
     19 C19        -9.4068   -0.8382   59.0541 C.3     1  ZINC001300804061   -0.1000
     20 H20        -9.8794   -0.6659   58.0871 H       1  ZINC001300804061    0.0900
     21 C21       -10.3285   -0.3417   60.1641 C.3     1  ZINC001300804061   -0.1200
     22 C22       -11.7428   -0.8816   59.9733 C.3     1  ZINC001300804061   -0.1200
     23 C23       -11.7720   -2.3845   60.2633 C.3     1  ZINC001300804061   -0.0800
     24 S24       -10.7097   -3.2354   59.0588 S.3     1  ZINC001300804061   -0.2600
     25 C25        -9.1398   -2.3354   59.2299 C.3     1  ZINC001300804061   -0.0700
     26 C26        -7.5117    1.9558   55.3726 C.3     1  ZINC001300804061    0.0600
     27 C27        -7.3162    1.1167   54.1078 C.3     1  ZINC001300804061   -0.1100
     28 C28        -8.6831    0.7925   53.4990 C.3     1  ZINC001300804061   -0.0900
     29 H29        -9.1813    1.7176   53.2087 H       1  ZINC001300804061    0.0800
     30 C30        -8.4966   -0.0958   52.2673 C.3     1  ZINC001300804061   -0.1400
     31 H31       -11.1076   -2.0585   54.8511 H       1  ZINC001300804061    0.0400
     32 H32       -11.7638   -0.6860   55.7754 H       1  ZINC001300804061    0.0400
     33 H33       -12.5896   -1.2412   54.2996 H       1  ZINC001300804061    0.0900
     34 H34       -10.1573    1.8662   55.5316 H       1  ZINC001300804061    0.0700
     35 H35       -10.2598    0.4018   56.5379 H       1  ZINC001300804061    0.0800
     36 H36        -8.8633    4.3542   61.7403 H       1  ZINC001300804061    0.1600
     37 H37        -8.6085    3.3502   64.2278 H       1  ZINC001300804061    0.1600
     38 H38        -8.9406    0.0759   64.5922 H       1  ZINC001300804061    0.0900
     39 H39        -7.3000   -0.2515   63.9843 H       1  ZINC001300804061    0.0800
     40 H40        -7.5694    1.0605   65.1566 H       1  ZINC001300804061    0.0900
     41 H41        -7.3821   -0.5053   58.3982 H       1  ZINC001300804061    0.1100
     42 H42        -7.6651   -0.1505   60.1194 H       1  ZINC001300804061    0.1000
     43 H43        -9.9433   -0.6766   61.1271 H       1  ZINC001300804061    0.0700
     44 H44       -10.3550    0.7478   60.1481 H       1  ZINC001300804061    0.0800
     45 H45       -12.4211   -0.3683   60.6549 H       1  ZINC001300804061    0.0800
     46 H46       -12.0622   -0.7049   58.9462 H       1  ZINC001300804061    0.0800
     47 H47       -11.4015   -2.5692   61.2716 H       1  ZINC001300804061    0.0800
     48 H48       -12.7937   -2.7539   60.1742 H       1  ZINC001300804061    0.1100
     49 H49        -8.4406   -2.6721   58.4645 H       1  ZINC001300804061    0.1000
     50 H50        -8.7190   -2.5199   60.2183 H       1  ZINC001300804061    0.0900
     51 H51        -8.0129    2.8889   55.1156 H       1  ZINC001300804061    0.0600
     52 H52        -6.5405    2.1756   55.8163 H       1  ZINC001300804061    0.0800
     53 H53        -6.7207    1.6776   53.3875 H       1  ZINC001300804061    0.0800
     54 H54        -6.8025    0.1896   54.3620 H       1  ZINC001300804061    0.0800
     55 H55        -8.0005   -1.0215   52.5589 H       1  ZINC001300804061    0.0500
     56 H56        -9.4701   -0.3261   51.8346 H       1  ZINC001300804061    0.0600
     57 H57        -7.8863    0.4272   51.5311 H       1  ZINC001300804061    0.0600
@<TRIPOS>BOND
     1     1     2    1
     2     1    31    1
     3     1    32    1
     4     1    33    1
     5     2     3    1
     6     3     4    1
     7     3    28    1
     8     3     5    1
     9     5     6    1
    10     5    34    1
    11     5    35    1
    12     6     7    1
    13     6    26    1
    14     7    17    1
    15     7     8    2
    16     8     9    1
    17     9    10    2
    18    10    11    1
    19    10    17    1
    20    11    16    1
    21    11    12    2
    22    12    13    1
    23    12    36    1
    24    13    14    2
    25    13    37    1
    26    14    15    1
    27    14    16    1
    28    15    38    1
    29    15    39    1
    30    15    40    1
    31    17    18    1
    32    18    19    1
    33    18    41    1
    34    18    42    1
    35    19    20    1
    36    19    25    1
    37    19    21    1
    38    21    22    1
    39    21    43    1
    40    21    44    1
    41    22    23    1
    42    22    45    1
    43    22    46    1
    44    23    24    1
    45    23    47    1
    46    23    48    1
    47    24    25    1
    48    25    49    1
    49    25    50    1
    50    26    27    1
    51    26    51    1
    52    26    52    1
    53    27    28    1
    54    27    53    1
    55    27    54    1
    56    28    29    1
    57    28    30    1
    58    30    55    1
    59    30    56    1
    60    30    57    1
@<TRIPOS>SUBSTRUCTURE
     1 ZINC001300804061        1 TEMP              0 ****  ****    0 ROOT


##########                                Name:    ZINC000864477301
##########                DOCK_Rotatable_Bonds:                   6
##########                         Heavy_Atoms:                  26
##########                    Molecular_Weight:             393.891
##########                DOCK_Rotatable_Bonds:                   6
##########                       Formal_Charge:         -0.00999978
##########                     HBond_Acceptors:                   7
##########                        HBond_Donors:                   1
##########                         Heavy_Atoms:                  26
##########                          Grid_Score:          -27.189730
##########                     Grid_vdw_energy:          -23.793552
##########                      Grid_es_energy:           -3.396178
##########           Internal_energy_repulsive:            8.716684

@<TRIPOS>MOLECULE
ZINC000864477301
 46 47 1 0 0
SMALL
USER_CHARGES


@<TRIPOS>ATOM
      1 C1         -9.2469   -1.3526   60.4761 C.3     1  ZINC000864477301   -0.1500
      2 C2         -8.5395   -0.4390   61.4789 C.3     1  ZINC000864477301    0.0600
      3 O3         -9.5156    0.4239   62.1199 O.3     1  ZINC000864477301   -0.3500
      4 C4         -9.8897    1.5295   61.4473 C.2     1  ZINC000864477301    0.5100
      5 O5        -11.0573    1.8640   61.4302 O.2     1  ZINC000864477301   -0.5000
      6 C6         -8.8801    2.3352   60.7306 C.ar    1  ZINC000864477301   -0.1400
      7 C7         -7.7727    2.8410   61.4139 C.ar    1  ZINC000864477301   -0.0300
      8 C8         -6.8336    3.5928   60.7382 C.ar    1  ZINC000864477301   -0.1500
      9 C9         -6.9876    3.8462   59.3870 C.ar    1  ZINC000864477301   -0.0100
     10 C10        -8.0830    3.3479   58.7036 C.ar    1  ZINC000864477301   -0.4900
     11 S11        -8.2693    3.6768   56.9826 S.o     1  ZINC000864477301    1.3800
     12 O12        -9.6693    3.5400   56.7807 O.2     1  ZINC000864477301   -0.8100
     13 C13        -7.4074    2.2828   56.2051 C.3     1  ZINC000864477301   -0.4600
     14 H14        -6.3461    2.3303   56.4489 H       1  ZINC000864477301    0.1400
     15 C15        -7.9917    0.9679   56.7250 C.3     1  ZINC000864477301   -0.1400
     16 C16        -7.5831    2.3542   54.7101 C.2     1  ZINC000864477301    0.5500
     17 O17        -8.6937    2.4608   54.2344 O.2     1  ZINC000864477301   -0.5100
     18 N18        -6.5062    2.2996   53.9016 N.am    1  ZINC000864477301   -0.6800
     19 C19        -6.6694    2.3660   52.5129 C.ar    1  ZINC000864477301    0.1400
     20 C20        -6.9141    1.2095   51.7853 C.ar    1  ZINC000864477301   -0.0600
     21 C21        -7.0042   -0.1197   52.4896 C.3     1  ZINC000864477301   -0.1100
     22 C22        -7.0753    1.2781   50.4148 C.ar    1  ZINC000864477301   -0.1100
     23 C23        -6.9933    2.4969   49.7674 C.ar    1  ZINC000864477301   -0.1000
     24 C24        -6.7492    3.6515   50.4887 C.ar    1  ZINC000864477301   -0.1100
     25 C25        -6.5928    3.5908   51.8603 C.ar    1  ZINC000864477301   -0.0200
     26 Cl26       -6.2871    5.0403   52.7653 Cl      1  ZINC000864477301   -0.0600
     27 C27        -9.0261    2.5896   59.3652 C.ar    1  ZINC000864477301    0.0100
     28 H28        -9.9842   -1.9628   60.9978 H       1  ZINC000864477301    0.0700
     29 H29        -9.7465   -0.7455   59.7211 H       1  ZINC000864477301    0.0700
     30 H30        -8.5141   -2.0004   59.9950 H       1  ZINC000864477301    0.0800
     31 H31        -8.0399   -1.0460   62.2339 H       1  ZINC000864477301    0.0700
     32 H32        -7.8022    0.1712   60.9572 H       1  ZINC000864477301    0.0700
     33 H33        -7.6515    2.6445   62.4689 H       1  ZINC000864477301    0.1400
     34 H34        -5.9764    3.9847   61.2656 H       1  ZINC000864477301    0.1400
     35 H35        -6.2500    4.4359   58.8631 H       1  ZINC000864477301    0.1500
     36 H36        -7.4737    0.1302   56.2578 H       1  ZINC000864477301    0.0700
     37 H37        -7.8646    0.9161   57.8064 H       1  ZINC000864477301    0.0700
     38 H38        -9.0530    0.9202   56.4813 H       1  ZINC000864477301    0.0700
     39 H39        -5.6179    2.2142   54.2820 H       1  ZINC000864477301    0.4100
     40 H40        -8.0370   -0.3053   52.7847 H       1  ZINC000864477301    0.0800
     41 H41        -6.6708   -0.9104   51.8175 H       1  ZINC000864477301    0.0700
     42 H42        -6.3701   -0.1051   53.3760 H       1  ZINC000864477301    0.0700
     43 H43        -7.2652    0.3784   49.8484 H       1  ZINC000864477301    0.1400
     44 H44        -7.1197    2.5475   48.6961 H       1  ZINC000864477301    0.1400
     45 H45        -6.6854    4.6021   49.9799 H       1  ZINC000864477301    0.1400
     46 H46        -9.8804    2.2010   58.8307 H       1  ZINC000864477301    0.1400
@<TRIPOS>BOND
     1     1     2    1
     2     1    28    1
     3     1    29    1
     4     1    30    1
     5     2     3    1
     6     2    31    1
     7     2    32    1
     8     3     4    1
     9     4     5    2
    10     4     6    1
    11     6    27   ar
    12     6     7   ar
    13     7     8   ar
    14     7    33    1
    15     8     9   ar
    16     8    34    1
    17     9    10   ar
    18     9    35    1
    19    10    11    1
    20    10    27   ar
    21    11    12    2
    22    11    13    1
    23    13    14    1
    24    13    15    1
    25    13    16    1
    26    15    36    1
    27    15    37    1
    28    15    38    1
    29    16    17    2
    30    16    18   am
    31    18    19    1
    32    18    39    1
    33    19    25   ar
    34    19    20   ar
    35    20    21    1
    36    20    22   ar
    37    21    40    1
    38    21    41    1
    39    21    42    1
    40    22    23   ar
    41    22    43    1
    42    23    24   ar
    43    23    44    1
    44    24    25   ar
    45    24    45    1
    46    25    26    1
    47    27    46    1
@<TRIPOS>SUBSTRUCTURE
     1 ZINC000864477301        1 TEMP              0 ****  ****    0 ROOT


##########                                Name:    ZINC000002873519
##########                DOCK_Rotatable_Bonds:                   5
##########                         Heavy_Atoms:                  25
##########                    Molecular_Weight:             375.207
##########                DOCK_Rotatable_Bonds:                   5
##########                       Formal_Charge:               -0.02
##########                     HBond_Acceptors:                   6
##########                        HBond_Donors:                   0
##########                         Heavy_Atoms:                  25
##########                          Grid_Score:          -27.186058
##########                     Grid_vdw_energy:          -27.393085
##########                      Grid_es_energy:            0.207027
##########           Internal_energy_repulsive:            7.792112

@<TRIPOS>MOLECULE
ZINC000002873519
 37 39 1 0 0
SMALL
USER_CHARGES


@<TRIPOS>ATOM
      1 C1        -13.4873   -3.0305   57.7791 C.3     1  ZINC000002873519   -0.1500
      2 C2        -12.5775   -1.9951   57.1697 C.2     1  ZINC000002873519    0.4500
      3 O3        -12.9685   -1.3112   56.2536 O.2     1  ZINC000002873519   -0.4800
      4 O4        -11.3321   -1.8323   57.6451 O.3     1  ZINC000002873519   -0.2900
      5 C5        -10.4425   -1.1995   56.8387 C.ar    1  ZINC000002873519    0.1200
      6 C6        -10.1013   -1.7479   55.6137 C.ar    1  ZINC000002873519   -0.1100
      7 C7         -9.1958   -1.1031   54.7924 C.ar    1  ZINC000002873519   -0.0800
      8 C8         -8.6205    0.0964   55.1847 C.ar    1  ZINC000002873519   -0.0400
      9 Cl9        -7.4855    0.8924   54.1399 Cl      1  ZINC000002873519   -0.0500
     10 C10        -8.9460    0.6596   56.3998 C.ar    1  ZINC000002873519   -0.0800
     11 C11        -9.8668    0.0197   57.2407 C.ar    1  ZINC000002873519   -0.0700
     12 C12       -10.2190    0.6102   58.5327 C.2     1  ZINC000002873519    0.0400
     13 C13        -9.4549    0.3338   59.6496 C.2     1  ZINC000002873519   -0.1900
     14 C14        -9.6535    0.8242   61.0244 C.2     1  ZINC000002873519   -0.2000
     15 C15        -8.6629    0.2889   61.7684 C.2     1  ZINC000002873519    0.1200
     16 C16        -8.4873    0.5241   63.2154 C.ar    1  ZINC000002873519   -0.0400
     17 C17        -7.4406   -0.0929   63.9044 C.ar    1  ZINC000002873519   -0.0800
     18 C18        -7.2822    0.1308   65.2558 C.ar    1  ZINC000002873519   -0.1100
     19 C19        -8.1584    0.9650   65.9301 C.ar    1  ZINC000002873519   -0.0200
     20 Cl20       -7.9521    1.2415   67.6315 Cl      1  ZINC000002873519   -0.0600
     21 C21        -9.1982    1.5798   65.2527 C.ar    1  ZINC000002873519   -0.1100
     22 C22        -9.3639    1.3692   63.8999 C.ar    1  ZINC000002873519   -0.0800
     23 O23        -7.8545   -0.4887   61.0205 O.3     1  ZINC000002873519   -0.2600
     24 C24        -8.2584   -0.5247   59.7380 C.2     1  ZINC000002873519    0.5200
     25 O25        -7.7344   -1.1383   58.8273 O.2     1  ZINC000002873519   -0.4200
     26 H26       -13.3599   -3.9786   57.2566 H       1  ZINC000002873519    0.1100
     27 H27       -13.2373   -3.1594   58.8321 H       1  ZINC000002873519    0.1000
     28 H28       -14.5229   -2.7023   57.6891 H       1  ZINC000002873519    0.1100
     29 H29       -10.5437   -2.6817   55.2995 H       1  ZINC000002873519    0.1500
     30 H30        -8.9340   -1.5366   53.8385 H       1  ZINC000002873519    0.1500
     31 H31        -8.4953    1.5935   56.7016 H       1  ZINC000002873519    0.1500
     32 H32       -11.0763    1.2622   58.6127 H       1  ZINC000002873519    0.1500
     33 H33       -10.4370    1.4828   61.3690 H       1  ZINC000002873519    0.1700
     34 H34        -6.7571   -0.7442   63.3798 H       1  ZINC000002873519    0.1400
     35 H35        -6.4732   -0.3457   65.7898 H       1  ZINC000002873519    0.1400
     36 H36        -9.8784    2.2289   65.7843 H       1  ZINC000002873519    0.1400
     37 H37       -10.1751    1.8492   63.3728 H       1  ZINC000002873519    0.1400
@<TRIPOS>BOND
     1     1     2    1
     2     1    26    1
     3     1    27    1
     4     1    28    1
     5     2     3    2
     6     2     4    1
     7     4     5    1
     8     5    11   ar
     9     5     6   ar
    10     6     7   ar
    11     6    29    1
    12     7     8   ar
    13     7    30    1
    14     8     9    1
    15     8    10   ar
    16    10    11   ar
    17    10    31    1
    18    11    12    1
    19    12    13    2
    20    12    32    1
    21    13    24    1
    22    13    14    1
    23    14    15    2
    24    14    33    1
    25    15    16    1
    26    15    23    1
    27    16    22   ar
    28    16    17   ar
    29    17    18   ar
    30    17    34    1
    31    18    19   ar
    32    18    35    1
    33    19    20    1
    34    19    21   ar
    35    21    22   ar
    36    21    36    1
    37    22    37    1
    38    23    24    1
    39    24    25    2
@<TRIPOS>SUBSTRUCTURE
     1 ZINC000002873519        1 TEMP              0 ****  ****    0 ROOT


##########                                Name:    ZINC000252489163
##########                DOCK_Rotatable_Bonds:                   6
##########                         Heavy_Atoms:                  25
##########                    Molecular_Weight:             379.403
##########                DOCK_Rotatable_Bonds:                   6
##########                       Formal_Charge:          0.00999963
##########                     HBond_Acceptors:                  10
##########                        HBond_Donors:                   2
##########                         Heavy_Atoms:                  25
##########                          Grid_Score:          -27.172750
##########                     Grid_vdw_energy:          -27.058910
##########                      Grid_es_energy:           -0.113840
##########           Internal_energy_repulsive:           17.750973

@<TRIPOS>MOLECULE
ZINC000252489163
 45 46 1 0 0
SMALL
USER_CHARGES


@<TRIPOS>ATOM
      1 C1         -1.8283    0.8094   48.5179 C.3     1  ZINC000252489163   -0.1100
      2 C2         -2.4295    1.7246   49.5533 C.ar    1  ZINC000252489163   -0.0600
      3 C3         -3.7999    1.7773   49.7149 C.ar    1  ZINC000252489163   -0.1300
      4 C4         -4.3532    2.6207   50.6696 C.ar    1  ZINC000252489163    0.1700
      5 N5         -5.7416    2.6760   50.8363 N.am    1  ZINC000252489163   -0.6800
      6 C6         -6.4157    1.5818   51.2423 C.2     1  ZINC000252489163    0.7100
      7 O7         -5.8176    0.5467   51.4638 O.2     1  ZINC000252489163   -0.5500
      8 N8         -7.7529    1.6352   51.4028 N.am    1  ZINC000252489163   -0.6200
      9 C9         -8.4895    2.8788   51.1391 C.3     1  ZINC000252489163    0.1000
     10 C10        -9.3274    3.2267   52.3734 C.3     1  ZINC000252489163   -0.1400
     11 C11       -10.2162    2.0342   52.7342 C.3     1  ZINC000252489163   -0.1300
     12 C12        -9.3395    0.8257   53.0705 C.3     1  ZINC000252489163    0.1400
     13 H13        -8.6783    1.0756   53.9003 H       1  ZINC000252489163    0.0900
     14 N14       -10.1903   -0.3061   53.4469 N.am    1  ZINC000252489163   -1.1100
     15 S15       -10.6123   -0.5335   55.0321 S.o2    1  ZINC000252489163    2.6100
     16 C16       -11.5048    0.9795   55.4845 C.3     1  ZINC000252489163   -0.6700
     17 O17       -11.4974   -1.6448   55.0031 O.2     1  ZINC000252489163   -0.9500
     18 O18        -9.3701   -0.6039   55.7187 O.2     1  ZINC000252489163   -0.9500
     19 C19        -8.5024    0.4491   51.8387 C.3     1  ZINC000252489163    0.1100
     20 C20        -3.5259    3.4086   51.4587 C.ar    1  ZINC000252489163   -0.1000
     21 C21        -2.1558    3.3513   51.2921 C.ar    1  ZINC000252489163   -0.1600
     22 C22        -1.2571    4.2062   52.1481 C.3     1  ZINC000252489163    0.5100
     23 F23        -0.9015    3.4992   53.3017 F       1  ZINC000252489163   -0.1700
     24 F24        -0.1032    4.5355   51.4288 F       1  ZINC000252489163   -0.1800
     25 F25        -1.9321    5.3773   52.5084 F       1  ZINC000252489163   -0.1800
     26 C26        -1.6078    2.5068   50.3444 C.ar    1  ZINC000252489163   -0.0900
     27 H27        -1.6347   -0.1661   48.9639 H       1  ZINC000252489163    0.0800
     28 H28        -2.5227    0.6969   47.6854 H       1  ZINC000252489163    0.0700
     29 H29        -0.8927    1.2355   48.1557 H       1  ZINC000252489163    0.0700
     30 H30        -4.4408    1.1635   49.0994 H       1  ZINC000252489163    0.1300
     31 H31        -6.2188    3.5018   50.6596 H       1  ZINC000252489163    0.4100
     32 H32        -7.7845    3.6852   50.9369 H       1  ZINC000252489163    0.0800
     33 H33        -9.1452    2.7398   50.2795 H       1  ZINC000252489163    0.0800
     34 H34        -8.6664    3.4539   53.2096 H       1  ZINC000252489163    0.0700
     35 H35        -9.9519    4.0933   52.1567 H       1  ZINC000252489163    0.0900
     36 H36       -10.8315    2.2879   53.5974 H       1  ZINC000252489163    0.0800
     37 H37       -10.8597    1.7918   51.8885 H       1  ZINC000252489163    0.0800
     38 H38       -10.5064   -0.9220   52.7676 H       1  ZINC000252489163    0.4200
     39 H39       -12.3787    1.0915   54.8427 H       1  ZINC000252489163    0.1300
     40 H40       -11.8237    0.9160   56.5248 H       1  ZINC000252489163    0.1300
     41 H41       -10.8483    1.8404   55.3577 H       1  ZINC000252489163    0.1300
     42 H42        -9.1611    0.1119   51.0384 H       1  ZINC000252489163    0.0800
     43 H43        -7.8049   -0.3466   52.1003 H       1  ZINC000252489163    0.1100
     44 H44        -3.9531    4.0657   52.2017 H       1  ZINC000252489163    0.1800
     45 H45        -0.5363    2.4635   50.2164 H       1  ZINC000252489163    0.1300
@<TRIPOS>BOND
     1     1     2    1
     2     1    27    1
     3     1    28    1
     4     1    29    1
     5     2    26   ar
     6     2     3   ar
     7     3     4   ar
     8     3    30    1
     9     4     5    1
    10     4    20   ar
    11     5     6   am
    12     5    31    1
    13     6     7    2
    14     6     8   am
    15     8    19    1
    16     8     9    1
    17     9    10    1
    18     9    32    1
    19     9    33    1
    20    10    11    1
    21    10    34    1
    22    10    35    1
    23    11    12    1
    24    11    36    1
    25    11    37    1
    26    12    13    1
    27    12    14    1
    28    12    19    1
    29    14    15   am
    30    14    38    1
    31    15    16    1
    32    15    17    2
    33    15    18    2
    34    16    39    1
    35    16    40    1
    36    16    41    1
    37    19    42    1
    38    19    43    1
    39    20    21   ar
    40    20    44    1
    41    21    22    1
    42    21    26   ar
    43    22    23    1
    44    22    24    1
    45    22    25    1
    46    26    45    1
@<TRIPOS>SUBSTRUCTURE
     1 ZINC000252489163        1 TEMP              0 ****  ****    0 ROOT


##########                                Name:    ZINC001199210165
##########                DOCK_Rotatable_Bonds:                   5
##########                         Heavy_Atoms:                  23
##########                    Molecular_Weight:             375.225
##########                DOCK_Rotatable_Bonds:                   5
##########                       Formal_Charge:         -0.00999999
##########                     HBond_Acceptors:                   6
##########                        HBond_Donors:                   2
##########                         Heavy_Atoms:                  23
##########                          Grid_Score:          -27.166519
##########                     Grid_vdw_energy:          -25.863878
##########                      Grid_es_energy:           -1.302640
##########           Internal_energy_repulsive:            5.907601

@<TRIPOS>MOLECULE
ZINC001199210165
 38 40 1 0 0
SMALL
USER_CHARGES


@<TRIPOS>ATOM
      1 C1         -6.5367    2.4594   49.7786 C.3     1  ZINC001199210165   -0.1700
      2 C2         -5.7602    2.5277   51.0951 C.3     1  ZINC001199210165    0.0800
      3 C3         -4.6187    3.5377   50.9622 C.3     1  ZINC001199210165   -0.1500
      4 O4         -6.6385    2.9370   52.1455 O.3     1  ZINC001199210165   -0.3000
      5 C5         -7.2036    1.9559   52.8933 C.ar    1  ZINC001199210165    0.3300
      6 C6         -7.3731    2.1449   54.2583 C.ar    1  ZINC001199210165   -0.1300
      7 C7         -7.9561    1.1261   55.0145 C.ar    1  ZINC001199210165   -0.0600
      8 C8         -8.1579    1.2821   56.4735 C.2     1  ZINC001199210165    0.5700
      9 O9         -7.7906    2.2966   57.0327 O.2     1  ZINC001199210165   -0.4900
     10 N10        -8.7487    0.2989   57.1810 N.am    1  ZINC001199210165   -0.6600
     11 C11        -8.9392    0.4461   58.5582 C.ar    1  ZINC001199210165    0.2000
     12 C12        -9.9050    1.3351   59.0326 C.ar    1  ZINC001199210165   -0.1500
     13 C13       -10.1050    1.4915   60.3721 C.ar    1  ZINC001199210165   -0.0200
     14 C14        -9.3374    0.7560   61.2822 C.ar    1  ZINC001199210165   -0.1700
     15 C15        -9.2921    0.6818   62.7397 C.2     1  ZINC001199210165    0.0900
     16 Br16      -10.3751    1.6632   63.9396 Br      1  ZINC001199210165    0.0600
     17 N17        -8.3726   -0.1817   63.0660 N.2     1  ZINC001199210165   -0.2100
     18 N18        -7.7788   -0.7095   61.9148 N.pl3   1  ZINC001199210165   -0.4900
     19 C19        -8.3608   -0.1432   60.8104 C.ar    1  ZINC001199210165    0.1500
     20 C20        -8.1733   -0.2944   59.4399 C.ar    1  ZINC001199210165   -0.1700
     21 C21        -8.3451   -0.0462   54.3565 C.ar    1  ZINC001199210165   -0.1900
     22 C22        -8.1404   -0.1526   52.9958 C.ar    1  ZINC001199210165    0.1400
     23 N23        -7.5913    0.8331   52.3129 N.ar    1  ZINC001199210165   -0.5200
     24 H24        -6.9466    3.4425   49.5471 H       1  ZINC001199210165    0.0600
     25 H25        -5.8669    2.1472   48.9774 H       1  ZINC001199210165    0.0700
     26 H26        -7.3499    1.7399   49.8733 H       1  ZINC001199210165    0.0600
     27 H27        -5.3503    1.5446   51.3266 H       1  ZINC001199210165    0.0900
     28 H28        -5.0286    4.5209   50.7307 H       1  ZINC001199210165    0.0700
     29 H29        -4.0655    3.5864   51.9001 H       1  ZINC001199210165    0.0600
     30 H30        -3.9488    3.2256   50.1610 H       1  ZINC001199210165    0.0800
     31 H31        -7.0586    3.0653   54.7279 H       1  ZINC001199210165    0.1600
     32 H32        -9.0420   -0.5110   56.7347 H       1  ZINC001199210165    0.4100
     33 H33       -10.4987    1.9043   58.3326 H       1  ZINC001199210165    0.1500
     34 H34       -10.8543    2.1819   60.7303 H       1  ZINC001199210165    0.1400
     35 H35        -7.0691   -1.3705   61.9004 H       1  ZINC001199210165    0.4500
     36 H36        -7.4311   -0.9845   59.0668 H       1  ZINC001199210165    0.1400
     37 H37        -8.7993   -0.8572   54.9065 H       1  ZINC001199210165    0.1400
     38 H38        -8.4379   -1.0546   52.4820 H       1  ZINC001199210165    0.1700
@<TRIPOS>BOND
     1     1     2    1
     2     1    24    1
     3     1    25    1
     4     1    26    1
     5     2     3    1
     6     2     4    1
     7     2    27    1
     8     3    28    1
     9     3    29    1
    10     3    30    1
    11     4     5    1
    12     5    23   ar
    13     5     6   ar
    14     6     7   ar
    15     6    31    1
    16     7     8    1
    17     7    21   ar
    18     8     9    2
    19     8    10   am
    20    10    11    1
    21    10    32    1
    22    11    20   ar
    23    11    12   ar
    24    12    13   ar
    25    12    33    1
    26    13    14   ar
    27    13    34    1
    28    14    19   ar
    29    14    15    1
    30    15    16    1
    31    15    17    2
    32    17    18    1
    33    18    19    1
    34    18    35    1
    35    19    20   ar
    36    20    36    1
    37    21    22   ar
    38    21    37    1
    39    22    23   ar
    40    22    38    1
@<TRIPOS>SUBSTRUCTURE
     1 ZINC001199210165        1 TEMP              0 ****  ****    0 ROOT


##########                                Name:    ZINC001076281847
##########                DOCK_Rotatable_Bonds:                   4
##########                         Heavy_Atoms:                  24
##########                    Molecular_Weight:             362.883
##########                DOCK_Rotatable_Bonds:                   4
##########                       Formal_Charge:         -0.00999959
##########                     HBond_Acceptors:                   7
##########                        HBond_Donors:                   0
##########                         Heavy_Atoms:                  24
##########                          Grid_Score:          -27.157114
##########                     Grid_vdw_energy:          -25.412676
##########                      Grid_es_energy:           -1.744438
##########           Internal_energy_repulsive:            9.238014

@<TRIPOS>MOLECULE
ZINC001076281847
 43 46 1 0 0
SMALL
USER_CHARGES


@<TRIPOS>ATOM
      1 C1        -16.8535   -2.6303   58.3309 C.3     1  ZINC001076281847   -0.0900
      2 C2        -15.9580   -1.6300   59.0155 C.2     1  ZINC001076281847    0.1400
      3 N3        -16.4202   -0.5032   59.4722 N.2     1  ZINC001076281847   -0.4600
      4 S4        -15.1142    0.3300   60.1628 S.3     1  ZINC001076281847    0.2500
      5 C5        -13.9391   -0.8786   59.8184 C.2     1  ZINC001076281847   -0.2100
      6 C6        -12.4696   -0.8430   60.1508 C.3     1  ZINC001076281847    0.1200
      7 N7        -11.8236   -2.0615   59.6450 N.3     1  ZINC001076281847   -0.5000
      8 C8        -10.5614   -2.3224   60.3545 C.3     1  ZINC001076281847    0.0300
      9 C9         -9.5578   -2.8342   59.3038 C.3     1  ZINC001076281847   -0.1000
     10 H10        -9.4898   -3.9213   59.2632 H       1  ZINC001076281847    0.1200
     11 C11        -8.1939   -2.1393   59.5561 C.3     1  ZINC001076281847   -0.1300
     12 C12        -8.4681   -0.7070   59.0352 C.3     1  ZINC001076281847    0.1000
     13 N13        -9.3313   -0.8940   57.8551 N.am    1  ZINC001076281847   -0.6000
     14 C14        -9.4493   -0.0328   56.8252 C.2     1  ZINC001076281847    0.5700
     15 O15       -10.1945   -0.2899   55.9004 O.2     1  ZINC001076281847   -0.4900
     16 C16        -8.6710    1.2269   56.8205 C.ar    1  ZINC001076281847   -0.0800
     17 C17        -8.8295    2.1735   57.8372 C.ar    1  ZINC001076281847   -0.1800
     18 C18        -8.0828    3.3348   57.7939 C.ar    1  ZINC001076281847    0.1000
     19 N19        -7.2310    3.5565   56.8128 N.ar    1  ZINC001076281847   -0.4500
     20 C20        -7.0499    2.6922   55.8345 C.ar    1  ZINC001076281847    0.1100
     21 C21        -7.7517    1.5008   55.8012 C.ar    1  ZINC001076281847   -0.0500
     22 Cl22       -7.5055    0.3686   54.5084 Cl      1  ZINC001076281847   -0.0100
     23 C23       -10.0548   -2.1908   57.9812 C.3     1  ZINC001076281847    0.1000
     24 H24        -9.8700   -2.8326   57.1197 H       1  ZINC001076281847    0.1100
     25 C25       -11.5553   -1.9561   58.2030 C.3     1  ZINC001076281847    0.0200
     26 C26       -14.6123   -1.8688   59.1919 C.2     1  ZINC001076281847   -0.1800
     27 H27       -17.2014   -3.3638   59.0581 H       1  ZINC001076281847    0.0700
     28 H28       -17.7099   -2.1141   57.8970 H       1  ZINC001076281847    0.0800
     29 H29       -16.2967   -3.1364   57.5422 H       1  ZINC001076281847    0.0900
     30 H30       -12.0130    0.0305   59.6852 H       1  ZINC001076281847    0.1000
     31 H31       -12.3429   -0.7864   61.2319 H       1  ZINC001076281847    0.1000
     32 H32       -10.1909   -1.4024   60.8067 H       1  ZINC001076281847    0.0600
     33 H33       -10.7154   -3.0801   61.1228 H       1  ZINC001076281847    0.0900
     34 H34        -7.9524   -2.1283   60.6189 H       1  ZINC001076281847    0.0900
     35 H35        -7.4003   -2.6178   58.9822 H       1  ZINC001076281847    0.0800
     36 H36        -8.9850   -0.1197   59.7942 H       1  ZINC001076281847    0.0800
     37 H37        -7.5347   -0.2220   58.7495 H       1  ZINC001076281847    0.0800
     38 H38        -9.5257    1.9995   58.6444 H       1  ZINC001076281847    0.1800
     39 H39        -8.1989    4.0718   58.5749 H       1  ZINC001076281847    0.1700
     40 H40        -6.3411    2.9153   55.0508 H       1  ZINC001076281847    0.1700
     41 H41       -12.1303   -2.6990   57.6501 H       1  ZINC001076281847    0.1000
     42 H42       -11.8257   -0.9554   57.8659 H       1  ZINC001076281847    0.0700
     43 H43       -14.1318   -2.7737   58.8501 H       1  ZINC001076281847    0.1400
@<TRIPOS>BOND
     1     1     2    1
     2     1    27    1
     3     1    28    1
     4     1    29    1
     5     2    26    1
     6     2     3    2
     7     3     4    1
     8     4     5    1
     9     5     6    1
    10     5    26    2
    11     6     7    1
    12     6    30    1
    13     6    31    1
    14     7    25    1
    15     7     8    1
    16     8     9    1
    17     8    32    1
    18     8    33    1
    19     9    10    1
    20     9    23    1
    21     9    11    1
    22    11    12    1
    23    11    34    1
    24    11    35    1
    25    12    13    1
    26    12    36    1
    27    12    37    1
    28    13    14   am
    29    13    23    1
    30    14    15    2
    31    14    16    1
    32    16    21   ar
    33    16    17   ar
    34    17    18   ar
    35    17    38    1
    36    18    19   ar
    37    18    39    1
    38    19    20   ar
    39    20    21   ar
    40    20    40    1
    41    21    22    1
    42    23    24    1
    43    23    25    1
    44    25    41    1
    45    25    42    1
    46    26    43    1
@<TRIPOS>SUBSTRUCTURE
     1 ZINC001076281847        1 TEMP              0 ****  ****    0 ROOT


##########                                Name:    ZINC000080099940
##########                DOCK_Rotatable_Bonds:                   4
##########                         Heavy_Atoms:                  26
##########                    Molecular_Weight:             343.388
##########                DOCK_Rotatable_Bonds:                   4
##########                       Formal_Charge:        -3.42727e-07
##########                     HBond_Acceptors:                   6
##########                        HBond_Donors:                   1
##########                         Heavy_Atoms:                  26
##########                          Grid_Score:          -27.112928
##########                     Grid_vdw_energy:          -28.469301
##########                      Grid_es_energy:            1.356373
##########           Internal_energy_repulsive:            4.149390

@<TRIPOS>MOLECULE
ZINC000080099940
 43 46 1 0 0
SMALL
USER_CHARGES


@<TRIPOS>ATOM
      1 C1         -7.1663    2.6073   50.4952 C.3     1  ZINC000080099940   -0.1100
      2 C2         -7.4646    1.8239   51.7477 C.2     1  ZINC000080099940   -0.0700
      3 C3         -7.3938    2.4279   52.9643 C.2     1  ZINC000080099940   -0.0900
      4 C4         -7.6764    1.6790   54.1251 C.2     1  ZINC000080099940    0.2300
      5 N5         -7.6845    2.0015   55.4101 N.2     1  ZINC000080099940   -0.4800
      6 C6         -8.0222    0.9213   56.1322 C.2     1  ZINC000080099940    0.1000
      7 C7         -8.1444    0.8675   57.6100 C.ar    1  ZINC000080099940   -0.0200
      8 C8         -7.5968    1.8824   58.3930 C.ar    1  ZINC000080099940   -0.0800
      9 C9         -7.7119    1.8306   59.7659 C.ar    1  ZINC000080099940   -0.1200
     10 C10        -8.3729    0.7671   60.3693 C.ar    1  ZINC000080099940    0.1500
     11 N11        -8.4879    0.7164   61.7612 N.am    1  ZINC000080099940   -0.6500
     12 C12        -9.2430    1.6259   62.4086 C.2     1  ZINC000080099940    0.5700
     13 O13        -9.8237    2.4899   61.7822 O.2     1  ZINC000080099940   -0.5000
     14 C14        -9.3651    1.5720   63.8866 C.ar    1  ZINC000080099940    0.1300
     15 C15       -10.3043    2.3624   64.5500 C.ar    1  ZINC000080099940   -0.1700
     16 C16       -10.3781    2.2740   65.9330 C.ar    1  ZINC000080099940    0.1600
     17 N17        -9.5631    1.4510   66.5700 N.ar    1  ZINC000080099940   -0.5000
     18 C18        -8.6863    0.7174   65.9118 C.ar    1  ZINC000080099940    0.3200
     19 C19        -7.7790   -0.2059   66.6835 C.3     1  ZINC000080099940   -0.0900
     20 N20        -8.5843    0.7646   64.6012 N.ar    1  ZINC000080099940   -0.5000
     21 C21        -8.9200   -0.2458   59.5904 C.ar    1  ZINC000080099940   -0.1400
     22 C22        -8.8118   -0.1952   58.2168 C.ar    1  ZINC000080099940   -0.0700
     23 C23        -8.2343   -0.1167   55.2757 C.2     1  ZINC000080099940   -0.0900
     24 N24        -8.0178    0.3556   54.0112 N.pl3   1  ZINC000080099940   -0.3600
     25 C25        -8.0849   -0.2376   52.7834 C.2     1  ZINC000080099940    0.0600
     26 C26        -7.8228    0.4683   51.6634 C.2     1  ZINC000080099940   -0.1400
     27 H27        -7.2792    1.9593   49.6260 H       1  ZINC000080099940    0.0700
     28 H28        -7.8595    3.4447   50.4166 H       1  ZINC000080099940    0.0800
     29 H29        -6.1443    2.9841   50.5372 H       1  ZINC000080099940    0.0800
     30 H30        -7.1234    3.4708   53.0405 H       1  ZINC000080099940    0.1500
     31 H31        -7.0826    2.7085   57.9246 H       1  ZINC000080099940    0.1300
     32 H32        -7.2879    2.6167   60.3730 H       1  ZINC000080099940    0.1400
     33 H33        -8.0244    0.0265   62.2613 H       1  ZINC000080099940    0.4200
     34 H34       -10.9565    3.0259   64.0015 H       1  ZINC000080099940    0.1600
     35 H35       -11.0920    2.8703   66.4819 H       1  ZINC000080099940    0.1800
     36 H36        -8.2543   -1.1816   66.7844 H       1  ZINC000080099940    0.0900
     37 H37        -6.8341   -0.3153   66.1512 H       1  ZINC000080099940    0.0900
     38 H38        -7.5924    0.2115   67.6730 H       1  ZINC000080099940    0.0900
     39 H39        -9.4332   -1.0711   60.0612 H       1  ZINC000080099940    0.1300
     40 H40        -9.2374   -0.9822   57.6120 H       1  ZINC000080099940    0.1400
     41 H41        -8.5193   -1.1230   55.5449 H       1  ZINC000080099940    0.1900
     42 H42        -8.3550   -1.2805   52.7074 H       1  ZINC000080099940    0.1700
     43 H43        -7.8801   -0.0136   50.6986 H       1  ZINC000080099940    0.1500
@<TRIPOS>BOND
     1     1     2    1
     2     1    27    1
     3     1    28    1
     4     1    29    1
     5     2    26    1
     6     2     3    2
     7     3     4    1
     8     3    30    1
     9     4    24    1
    10     4     5    2
    11     5     6    1
    12     6     7    1
    13     6    23    2
    14     7    22   ar
    15     7     8   ar
    16     8     9   ar
    17     8    31    1
    18     9    10   ar
    19     9    32    1
    20    10    11    1
    21    10    21   ar
    22    11    12   am
    23    11    33    1
    24    12    13    2
    25    12    14    1
    26    14    20   ar
    27    14    15   ar
    28    15    16   ar
    29    15    34    1
    30    16    17   ar
    31    16    35    1
    32    17    18   ar
    33    18    19    1
    34    18    20   ar
    35    19    36    1
    36    19    37    1
    37    19    38    1
    38    21    22   ar
    39    21    39    1
    40    22    40    1
    41    23    24    1
    42    23    41    1
    43    24    25    1
    44    25    26    2
    45    25    42    1
    46    26    43    1
@<TRIPOS>SUBSTRUCTURE
     1 ZINC000080099940        1 TEMP              0 ****  ****    0 ROOT


##########                                Name:    ZINC000535362552
##########                DOCK_Rotatable_Bonds:                   5
##########                         Heavy_Atoms:                  26
##########                    Molecular_Weight:             416.228
##########                DOCK_Rotatable_Bonds:                   5
##########                       Formal_Charge:         -0.00999981
##########                     HBond_Acceptors:                   6
##########                        HBond_Donors:                   1
##########                         Heavy_Atoms:                  26
##########                          Grid_Score:          -27.112402
##########                     Grid_vdw_energy:          -26.259762
##########                      Grid_es_energy:           -0.852640
##########           Internal_energy_repulsive:           19.282866

@<TRIPOS>MOLECULE
ZINC000535362552
 40 43 1 0 0
SMALL
USER_CHARGES


@<TRIPOS>ATOM
      1 C1         -9.8374    2.4111   67.4138 C.3     1  ZINC000535362552    0.0300
      2 O2         -8.5625    1.8274   67.7907 O.3     1  ZINC000535362552   -0.3400
      3 C3         -7.9088    1.1217   66.8455 C.2     1  ZINC000535362552    0.5500
      4 O4         -6.8398    0.6035   67.1044 O.2     1  ZINC000535362552   -0.4800
      5 C5         -8.4877    0.9793   65.5040 C.2     1  ZINC000535362552   -0.0100
      6 C6         -8.0658    0.0978   64.5596 C.2     1  ZINC000535362552   -0.0900
      7 C7         -8.9252    0.3091   63.3955 C.ar    1  ZINC000535362552   -0.1300
      8 C8         -9.0021   -0.2694   62.1266 C.ar    1  ZINC000535362552   -0.0600
      9 C9         -9.9596    0.1728   61.2330 C.ar    1  ZINC000535362552    0.1200
     10 N10       -10.0443   -0.4022   59.9581 N.am    1  ZINC000535362552   -0.6700
     11 C11       -10.9801   -1.3375   59.7015 C.2     1  ZINC000535362552    0.5200
     12 O12       -11.7490   -1.6815   60.5743 O.2     1  ZINC000535362552   -0.5000
     13 C13       -11.0712   -1.9559   58.3304 C.3     1  ZINC000535362552   -0.1000
     14 H14       -10.6551   -1.2885   57.5757 H       1  ZINC000535362552    0.1300
     15 C15       -10.3687   -3.3339   58.2975 C.3     1  ZINC000535362552    0.0600
     16 O16       -11.2095   -4.0990   57.4173 O.3     1  ZINC000535362552   -0.2900
     17 C17       -12.4805   -3.6146   57.4777 C.ar    1  ZINC000535362552    0.1300
     18 C18       -13.6822   -4.2119   57.1064 C.ar    1  ZINC000535362552   -0.1300
     19 C19       -14.8715   -3.5268   57.2469 C.ar    1  ZINC000535362552   -0.0500
     20 C20       -14.8812   -2.2411   57.7571 C.ar    1  ZINC000535362552   -0.1200
     21 Br21      -16.5142   -1.3057   57.9420 Br      1  ZINC000535362552   -0.0400
     22 C22       -13.6907   -1.6419   58.1324 C.ar    1  ZINC000535362552   -0.0100
     23 C23       -12.5036   -2.3253   57.9966 C.ar    1  ZINC000535362552   -0.1600
     24 C24       -10.8412    1.1891   61.5974 C.ar    1  ZINC000535362552   -0.0900
     25 C25       -10.7719    1.7653   62.8462 C.ar    1  ZINC000535362552   -0.0900
     26 C26        -9.8171    1.3353   63.7603 C.ar    1  ZINC000535362552    0.0700
     27 O27        -9.5231    1.6998   65.0245 O.3     1  ZINC000535362552   -0.1700
     28 H28       -10.5239    1.6202   67.1117 H       1  ZINC000535362552    0.0700
     29 H29       -10.2556    2.9502   68.2639 H       1  ZINC000535362552    0.1100
     30 H30        -9.6896    3.1010   66.5831 H       1  ZINC000535362552    0.0700
     31 H31        -7.2587   -0.6141   64.6502 H       1  ZINC000535362552    0.1800
     32 H32        -8.3182   -1.0565   61.8455 H       1  ZINC000535362552    0.1400
     33 H33        -9.4294   -0.1270   59.2601 H       1  ZINC000535362552    0.4100
     34 H34        -9.3621   -3.2446   57.8890 H       1  ZINC000535362552    0.1200
     35 H35       -10.3447   -3.7789   59.2923 H       1  ZINC000535362552    0.0900
     36 H36       -13.6833   -5.2154   56.7071 H       1  ZINC000535362552    0.1400
     37 H37       -15.7997   -3.9966   56.9568 H       1  ZINC000535362552    0.1400
     38 H38       -13.6932   -0.6382   58.5312 H       1  ZINC000535362552    0.1400
     39 H39       -11.5861    1.5284   60.8927 H       1  ZINC000535362552    0.1500
     40 H40       -11.4605    2.5524   63.1159 H       1  ZINC000535362552    0.1500
@<TRIPOS>BOND
     1     1     2    1
     2     1    28    1
     3     1    29    1
     4     1    30    1
     5     2     3    1
     6     3     4    2
     7     3     5    1
     8     5    27    1
     9     5     6    2
    10     6     7    1
    11     6    31    1
    12     7    26   ar
    13     7     8   ar
    14     8     9   ar
    15     8    32    1
    16     9    10    1
    17     9    24   ar
    18    10    11   am
    19    10    33    1
    20    11    12    2
    21    11    13    1
    22    13    14    1
    23    13    23    1
    24    13    15    1
    25    15    16    1
    26    15    34    1
    27    15    35    1
    28    16    17    1
    29    17    23   ar
    30    17    18   ar
    31    18    19   ar
    32    18    36    1
    33    19    20   ar
    34    19    37    1
    35    20    21    1
    36    20    22   ar
    37    22    23   ar
    38    22    38    1
    39    24    25   ar
    40    24    39    1
    41    25    26   ar
    42    25    40    1
    43    26    27    1
@<TRIPOS>SUBSTRUCTURE
     1 ZINC000535362552        1 TEMP              0 ****  ****    0 ROOT


##########                                Name:    ZINC000840649129
##########                DOCK_Rotatable_Bonds:                   8
##########                         Heavy_Atoms:                  26
##########                    Molecular_Weight:             376.839
##########                DOCK_Rotatable_Bonds:                   8
##########                       Formal_Charge:          -0.0199998
##########                     HBond_Acceptors:                   7
##########                        HBond_Donors:                   3
##########                         Heavy_Atoms:                  26
##########                          Grid_Score:          -27.045206
##########                     Grid_vdw_energy:          -23.032301
##########                      Grid_es_energy:           -4.012906
##########           Internal_energy_repulsive:            9.630301

@<TRIPOS>MOLECULE
ZINC000840649129
 47 48 1 0 0
SMALL
USER_CHARGES


@<TRIPOS>ATOM
      1 C1        -15.7764   -3.5462   58.1878 C.3     1  ZINC000840649129    0.0200
      2 O2        -14.8768   -2.5077   57.7954 O.3     1  ZINC000840649129   -0.2900
      3 C3        -13.5704   -2.6657   58.1281 C.ar    1  ZINC000840649129    0.1400
      4 C4        -12.6794   -3.2005   57.2104 C.ar    1  ZINC000840649129   -0.1700
      5 C5        -11.3504   -3.3621   57.5468 C.ar    1  ZINC000840649129   -0.1200
      6 C6        -10.8944   -2.9900   58.8070 C.ar    1  ZINC000840649129    0.1700
      7 N7         -9.5452   -3.1576   59.1389 N.pl3   1  ZINC000840649129   -0.8800
      8 C8        -11.7720   -2.4538   59.7336 C.ar    1  ZINC000840649129   -0.1000
      9 C9        -13.1177   -2.2833   59.3985 C.ar    1  ZINC000840649129   -0.1200
     10 C10       -14.0586   -1.7125   60.3792 C.2     1  ZINC000840649129    0.5100
     11 O11       -14.3937   -2.3629   61.3495 O.2     1  ZINC000840649129   -0.4800
     12 O12       -14.5471   -0.4695   60.1998 O.3     1  ZINC000840649129   -0.3200
     13 C13       -13.9323    0.5977   60.9690 C.3     1  ZINC000840649129    0.0800
     14 H14       -12.9057    0.3248   61.2131 H       1  ZINC000840649129    0.1200
     15 C15       -14.7111    0.8128   62.2412 C.2     1  ZINC000840649129    0.5200
     16 O16       -15.9220    0.8733   62.2082 O.2     1  ZINC000840649129   -0.4900
     17 N17       -14.0619    0.9377   63.4156 N.am    1  ZINC000840649129   -0.6600
     18 C18       -14.7851    1.1375   64.5974 C.ar    1  ZINC000840649129    0.1600
     19 C19       -15.6828    0.1733   65.0348 C.ar    1  ZINC000840649129   -0.1400
     20 C20       -16.3949    0.3731   66.2019 C.ar    1  ZINC000840649129   -0.0900
     21 C21       -16.2146    1.5316   66.9343 C.ar    1  ZINC000840649129   -0.1300
     22 C22       -15.3214    2.4950   66.5016 C.ar    1  ZINC000840649129   -0.0900
     23 C23       -14.6018    2.2990   65.3384 C.ar    1  ZINC000840649129   -0.0700
     24 Cl24      -13.4803    3.5081   64.7959 Cl      1  ZINC000840649129   -0.0700
     25 C25       -13.9353    1.8870   60.1452 C.3     1  ZINC000840649129   -0.1100
     26 C26       -13.4638    3.0513   61.0187 C.3     1  ZINC000840649129   -0.1600
     27 C27       -12.9920    1.7310   58.9506 C.3     1  ZINC000840649129   -0.1500
     28 H28       -16.7857   -3.2954   57.8611 H       1  ZINC000840649129    0.1000
     29 H29       -15.4690   -4.4859   57.7290 H       1  ZINC000840649129    0.0600
     30 H30       -15.7610   -3.6495   59.2729 H       1  ZINC000840649129    0.0600
     31 H31       -13.0261   -3.4918   56.2299 H       1  ZINC000840649129    0.1400
     32 H32       -10.6612   -3.7799   56.8278 H       1  ZINC000840649129    0.1300
     33 H33        -8.9291   -3.5329   58.4904 H       1  ZINC000840649129    0.4000
     34 H34        -9.2260   -2.8985   60.0175 H       1  ZINC000840649129    0.4000
     35 H35       -11.4167   -2.1648   60.7117 H       1  ZINC000840649129    0.1400
     36 H36       -13.0934    0.8892   63.4421 H       1  ZINC000840649129    0.4200
     37 H37       -15.8248   -0.7320   64.4633 H       1  ZINC000840649129    0.1700
     38 H38       -17.0937   -0.3768   66.5422 H       1  ZINC000840649129    0.1300
     39 H39       -16.7726    1.6849   67.8461 H       1  ZINC000840649129    0.1300
     40 H40       -15.1830    3.3991   67.0758 H       1  ZINC000840649129    0.1400
     41 H41       -14.9451    2.0871   59.7871 H       1  ZINC000840649129    0.0900
     42 H42       -12.5090    2.7969   61.4789 H       1  ZINC000840649129    0.0700
     43 H43       -13.3441    3.9425   60.4026 H       1  ZINC000840649129    0.0800
     44 H44       -14.2023    3.2440   61.7968 H       1  ZINC000840649129    0.0600
     45 H45       -13.3279    0.9015   58.3283 H       1  ZINC000840649129    0.0500
     46 H46       -12.9940    2.6495   58.3638 H       1  ZINC000840649129    0.0600
     47 H47       -11.9821    1.5309   59.3087 H       1  ZINC000840649129    0.0700
@<TRIPOS>BOND
     1     1     2    1
     2     1    28    1
     3     1    29    1
     4     1    30    1
     5     2     3    1
     6     3     9   ar
     7     3     4   ar
     8     4     5   ar
     9     4    31    1
    10     5     6   ar
    11     5    32    1
    12     6     7    1
    13     6     8   ar
    14     7    33    1
    15     7    34    1
    16     8     9   ar
    17     8    35    1
    18     9    10    1
    19    10    11    2
    20    10    12    1
    21    12    13    1
    22    13    14    1
    23    13    15    1
    24    13    25    1
    25    15    16    2
    26    15    17   am
    27    17    18    1
    28    17    36    1
    29    18    23   ar
    30    18    19   ar
    31    19    20   ar
    32    19    37    1
    33    20    21   ar
    34    20    38    1
    35    21    22   ar
    36    21    39    1
    37    22    23   ar
    38    22    40    1
    39    23    24    1
    40    25    26    1
    41    25    27    1
    42    25    41    1
    43    26    42    1
    44    26    43    1
    45    26    44    1
    46    27    45    1
    47    27    46    1
    48    27    47    1
@<TRIPOS>SUBSTRUCTURE
     1 ZINC000840649129        1 TEMP              0 ****  ****    0 ROOT


##########                                Name:    ZINC000186316242
##########                DOCK_Rotatable_Bonds:                   7
##########                         Heavy_Atoms:                  28
##########                    Molecular_Weight:             392.525
##########                DOCK_Rotatable_Bonds:                   7
##########                       Formal_Charge:         -0.00999981
##########                     HBond_Acceptors:                   6
##########                        HBond_Donors:                   0
##########                         Heavy_Atoms:                  28
##########                          Grid_Score:          -27.044542
##########                     Grid_vdw_energy:          -28.263609
##########                      Grid_es_energy:            1.219067
##########           Internal_energy_repulsive:           25.483521

@<TRIPOS>MOLECULE
ZINC000186316242
 52 55 1 0 0
SMALL
USER_CHARGES


@<TRIPOS>ATOM
      1 C1        -11.3920   -0.0377   53.7473 C.3     1  ZINC000186316242   -0.1500
      2 C2        -10.4857    1.0323   54.3593 C.3     1  ZINC000186316242    0.1000
      3 N3         -9.1359    0.9048   53.8043 N.am    1  ZINC000186316242   -0.5900
      4 C4         -8.0695    0.8675   54.6275 C.2     1  ZINC000186316242    0.5900
      5 O5         -6.9489    0.7617   54.1668 O.2     1  ZINC000186316242   -0.5000
      6 C6         -8.2612    0.9549   56.0858 C.2     1  ZINC000186316242    0.0100
      7 C7         -8.7362   -0.0859   56.8268 C.2     1  ZINC000186316242   -0.2100
      8 S8         -8.8199    0.3912   58.4669 S.3     1  ZINC000186316242    0.2000
      9 C9         -8.2020    1.9863   58.0544 C.2     1  ZINC000186316242    0.0700
     10 C10        -7.9662    3.0850   59.0163 C.ar    1  ZINC000186316242    0.1900
     11 C11        -7.4783    4.3097   58.5617 C.ar    1  ZINC000186316242   -0.1500
     12 C12        -7.2632    5.3283   59.4740 C.ar    1  ZINC000186316242   -0.0700
     13 C13        -7.5431    5.0894   60.8118 C.ar    1  ZINC000186316242   -0.1600
     14 C14        -8.0253    3.8503   61.1939 C.ar    1  ZINC000186316242    0.1100
     15 N15        -8.2261    2.8992   60.3055 N.ar    1  ZINC000186316242   -0.4500
     16 N16        -7.9798    2.0489   56.7774 N.2     1  ZINC000186316242   -0.3900
     17 C17        -8.9453    0.8179   52.3543 C.3     1  ZINC000186316242    0.1400
     18 H18        -9.8976    0.9461   51.8398 H       1  ZINC000186316242    0.1000
     19 C19        -8.3102   -0.5401   51.9770 C.3     1  ZINC000186316242   -0.1300
     20 C20        -7.3147   -0.1568   50.8533 C.3     1  ZINC000186316242    0.0400
     21 N21        -6.7825    1.1547   51.3036 N.3     1  ZINC000186316242   -0.4900
     22 C22        -6.2025    1.9015   50.1794 C.3     1  ZINC000186316242    0.0800
     23 C23        -4.9687    2.6313   50.6444 C.ar    1  ZINC000186316242   -0.0700
     24 C24        -5.0896    3.7643   51.4270 C.ar    1  ZINC000186316242   -0.1000
     25 C25        -3.9577    4.4337   51.8535 C.ar    1  ZINC000186316242   -0.1200
     26 C26        -2.7051    3.9699   51.4977 C.ar    1  ZINC000186316242   -0.1200
     27 C27        -2.5843    2.8363   50.7158 C.ar    1  ZINC000186316242   -0.1200
     28 C28        -3.7159    2.1645   50.2928 C.ar    1  ZINC000186316242   -0.1100
     29 C29        -7.9359    1.8813   51.8832 C.3     1  ZINC000186316242    0.0400
     30 H30       -12.3963    0.0572   54.1602 H       1  ZINC000186316242    0.0700
     31 H31       -11.4299    0.0933   52.6659 H       1  ZINC000186316242    0.0500
     32 H32       -10.9955   -1.0260   53.9798 H       1  ZINC000186316242    0.0400
     33 H33       -10.8822    2.0206   54.1267 H       1  ZINC000186316242    0.1200
     34 H34       -10.4477    0.9013   55.4407 H       1  ZINC000186316242    0.0700
     35 H35        -9.0147   -1.0552   56.4405 H       1  ZINC000186316242    0.1900
     36 H36        -7.2708    4.4611   57.5126 H       1  ZINC000186316242    0.1400
     37 H37        -6.8857    6.2874   59.1517 H       1  ZINC000186316242    0.1400
     38 H38        -7.3856    5.8636   61.5481 H       1  ZINC000186316242    0.1400
     39 H39        -8.2436    3.6614   62.2346 H       1  ZINC000186316242    0.1600
     40 H40        -7.7833   -0.9695   52.8292 H       1  ZINC000186316242    0.0900
     41 H41        -9.0673   -1.2294   51.6030 H       1  ZINC000186316242    0.0700
     42 H42        -6.5139   -0.8927   50.7813 H       1  ZINC000186316242    0.0800
     43 H43        -7.8320   -0.0550   49.8993 H       1  ZINC000186316242    0.0400
     44 H44        -5.9357    1.2083   49.3817 H       1  ZINC000186316242    0.0400
     45 H45        -6.9314    2.6212   49.8065 H       1  ZINC000186316242    0.0800
     46 H46        -6.0682    4.1267   51.7050 H       1  ZINC000186316242    0.1200
     47 H47        -4.0522    5.3192   52.4644 H       1  ZINC000186316242    0.1200
     48 H48        -1.8208    4.4932   51.8303 H       1  ZINC000186316242    0.1200
     49 H49        -1.6056    2.4740   50.4375 H       1  ZINC000186316242    0.1200
     50 H50        -3.6214    1.2788   49.6820 H       1  ZINC000186316242    0.1200
     51 H51        -8.3915    2.5192   51.1259 H       1  ZINC000186316242    0.0500
     52 H52        -7.6078    2.4829   52.7309 H       1  ZINC000186316242    0.0800
@<TRIPOS>BOND
     1     1     2    1
     2     1    30    1
     3     1    31    1
     4     1    32    1
     5     2     3    1
     6     2    33    1
     7     2    34    1
     8     3     4   am
     9     3    17    1
    10     4     5    2
    11     4     6    1
    12     6    16    1
    13     6     7    2
    14     7     8    1
    15     7    35    1
    16     8     9    1
    17     9    10    1
    18     9    16    2
    19    10    15   ar
    20    10    11   ar
    21    11    12   ar
    22    11    36    1
    23    12    13   ar
    24    12    37    1
    25    13    14   ar
    26    13    38    1
    27    14    15   ar
    28    14    39    1
    29    17    18    1
    30    17    29    1
    31    17    19    1
    32    19    20    1
    33    19    40    1
    34    19    41    1
    35    20    21    1
    36    20    42    1
    37    20    43    1
    38    21    22    1
    39    21    29    1
    40    22    23    1
    41    22    44    1
    42    22    45    1
    43    23    28   ar
    44    23    24   ar
    45    24    25   ar
    46    24    46    1
    47    25    26   ar
    48    25    47    1
    49    26    27   ar
    50    26    48    1
    51    27    28   ar
    52    27    49    1
    53    28    50    1
    54    29    51    1
    55    29    52    1
@<TRIPOS>SUBSTRUCTURE
     1 ZINC000186316242        1 TEMP              0 ****  ****    0 ROOT


##########                                Name:    ZINC000467104849
##########                DOCK_Rotatable_Bonds:                   6
##########                         Heavy_Atoms:                  29
##########                    Molecular_Weight:             421.896
##########                DOCK_Rotatable_Bonds:                   6
##########                       Formal_Charge:           0.0200002
##########                     HBond_Acceptors:                   7
##########                        HBond_Donors:                   0
##########                         Heavy_Atoms:                  29
##########                          Grid_Score:          -27.043221
##########                     Grid_vdw_energy:          -27.908779
##########                      Grid_es_energy:            0.865559
##########           Internal_energy_repulsive:          104.822327

@<TRIPOS>MOLECULE
ZINC000467104849
 54 56 1 0 0
SMALL
USER_CHARGES


@<TRIPOS>ATOM
      1 C1        -10.0978   -4.1605   58.5025 C.3     1  ZINC000467104849    0.0200
      2 O2         -8.9366   -3.4064   58.8560 O.3     1  ZINC000467104849   -0.3000
      3 C3         -9.1315   -2.1166   59.2407 C.ar    1  ZINC000467104849    0.1000
      4 C4         -8.0545   -1.3389   59.6331 C.ar    1  ZINC000467104849   -0.1700
      5 C5         -8.2543   -0.0275   60.0236 C.ar    1  ZINC000467104849   -0.1200
      6 C6         -9.5275    0.5102   60.0240 C.ar    1  ZINC000467104849   -0.0800
      7 C7         -9.7399    1.9398   60.4510 C.3     1  ZINC000467104849   -0.0400
      8 C8        -11.0140    2.4824   59.8005 C.3     1  ZINC000467104849   -0.1300
      9 C9         -9.8781    2.0022   61.9734 C.3     1  ZINC000467104849   -0.1600
     10 C10        -8.5611    2.7733   60.0191 C.2     1  ZINC000467104849    0.5300
     11 O11        -7.9346    3.4093   60.8401 O.2     1  ZINC000467104849   -0.5300
     12 N12        -8.2030    2.8122   58.7203 N.am    1  ZINC000467104849   -0.6100
     13 C13        -7.0558    3.6189   58.2747 C.3     1  ZINC000467104849    0.0600
     14 C14        -6.1443    2.7319   57.4189 C.3     1  ZINC000467104849    0.0500
     15 O15        -6.9212    2.1111   56.3918 O.3     1  ZINC000467104849   -0.3700
     16 C16        -7.9437    1.2382   56.8780 C.3     1  ZINC000467104849    0.1300
     17 H17        -7.4960    0.4656   57.5031 H       1  ZINC000467104849    0.0800
     18 C18        -8.6527    0.5958   55.7138 C.ar    1  ZINC000467104849   -0.0900
     19 C19        -9.9538    0.1520   55.8574 C.ar    1  ZINC000467104849   -0.0500
     20 C20       -10.6058   -0.4377   54.7906 C.ar    1  ZINC000467104849   -0.1400
     21 C21        -9.9556   -0.5835   53.5774 C.ar    1  ZINC000467104849    0.1200
     22 F22       -10.5921   -1.1592   52.5341 F       1  ZINC000467104849   -0.1200
     23 C23        -8.6512   -0.1379   53.4340 C.ar    1  ZINC000467104849   -0.0800
     24 Cl24       -7.8335   -0.3197   51.9134 Cl      1  ZINC000467104849   -0.0400
     25 C25        -8.0031    0.4559   54.5015 C.ar    1  ZINC000467104849   -0.0700
     26 C26        -8.9438    2.0444   57.7069 C.3     1  ZINC000467104849    0.0900
     27 C27       -10.6071   -0.2605   59.6330 C.ar    1  ZINC000467104849   -0.1600
     28 C28       -10.4131   -1.5734   59.2355 C.ar    1  ZINC000467104849    0.1100
     29 O29       -11.4736   -2.3327   58.8507 O.3     1  ZINC000467104849   -0.3000
     30 C30       -12.7594   -1.7094   58.8715 C.3     1  ZINC000467104849    0.0200
     31 H31        -9.8023   -5.1697   58.2159 H       1  ZINC000467104849    0.1000
     32 H32       -10.7738   -4.2084   59.3563 H       1  ZINC000467104849    0.0600
     33 H33       -10.6032   -3.6784   57.6657 H       1  ZINC000467104849    0.0600
     34 H34        -7.0586   -1.7569   59.6345 H       1  ZINC000467104849    0.1400
     35 H35        -7.4138    0.5777   60.3294 H       1  ZINC000467104849    0.1300
     36 H36       -11.8772    1.9363   60.1810 H       1  ZINC000467104849    0.0700
     37 H37       -11.1204    3.5411   60.0375 H       1  ZINC000467104849    0.0700
     38 H38       -10.9520    2.3566   58.7195 H       1  ZINC000467104849    0.0700
     39 H39        -8.9388    1.6996   62.4363 H       1  ZINC000467104849    0.0700
     40 H40       -10.1201    3.0213   62.2748 H       1  ZINC000467104849    0.0700
     41 H41       -10.6741    1.3299   62.2938 H       1  ZINC000467104849    0.0700
     42 H42        -7.4086    4.4627   57.6817 H       1  ZINC000467104849    0.0800
     43 H43        -6.5046    3.9835   59.1414 H       1  ZINC000467104849    0.1100
     44 H44        -5.3633    3.3424   56.9659 H       1  ZINC000467104849    0.1100
     45 H45        -5.6901    1.9646   58.0459 H       1  ZINC000467104849    0.0600
     46 H46       -10.4614    0.2656   56.8039 H       1  ZINC000467104849    0.1500
     47 H47       -11.6222   -0.7848   54.9037 H       1  ZINC000467104849    0.1500
     48 H48        -6.9867    0.8037   54.3903 H       1  ZINC000467104849    0.1500
     49 H49        -9.6445    1.3679   58.1965 H       1  ZINC000467104849    0.1100
     50 H50        -9.4881    2.7315   57.0591 H       1  ZINC000467104849    0.0800
     51 H51       -11.6009    0.1620   59.6341 H       1  ZINC000467104849    0.1400
     52 H52       -12.9872   -1.3804   59.8854 H       1  ZINC000467104849    0.0600
     53 H53       -12.7569   -0.8490   58.2022 H       1  ZINC000467104849    0.0600
     54 H54       -13.5146   -2.4233   58.5427 H       1  ZINC000467104849    0.1000
@<TRIPOS>BOND
     1     1     2    1
     2     1    31    1
     3     1    32    1
     4     1    33    1
     5     2     3    1
     6     3    28   ar
     7     3     4   ar
     8     4     5   ar
     9     4    34    1
    10     5     6   ar
    11     5    35    1
    12     6     7    1
    13     6    27   ar
    14     7     8    1
    15     7     9    1
    16     7    10    1
    17     8    36    1
    18     8    37    1
    19     8    38    1
    20     9    39    1
    21     9    40    1
    22     9    41    1
    23    10    11    2
    24    10    12   am
    25    12    26    1
    26    12    13    1
    27    13    14    1
    28    13    42    1
    29    13    43    1
    30    14    15    1
    31    14    44    1
    32    14    45    1
    33    15    16    1
    34    16    17    1
    35    16    18    1
    36    16    26    1
    37    18    25   ar
    38    18    19   ar
    39    19    20   ar
    40    19    46    1
    41    20    21   ar
    42    20    47    1
    43    21    22    1
    44    21    23   ar
    45    23    24    1
    46    23    25   ar
    47    25    48    1
    48    26    49    1
    49    26    50    1
    50    27    28   ar
    51    27    51    1
    52    28    29    1
    53    29    30    1
    54    30    52    1
    55    30    53    1
    56    30    54    1
@<TRIPOS>SUBSTRUCTURE
     1 ZINC000467104849        1 TEMP              0 ****  ****    0 ROOT


##########                                Name:    ZINC001625935330
##########                DOCK_Rotatable_Bonds:                   5
##########                         Heavy_Atoms:                  25
##########                    Molecular_Weight:             327.385
##########                DOCK_Rotatable_Bonds:                   5
##########                       Formal_Charge:           0.0199995
##########                     HBond_Acceptors:                   4
##########                        HBond_Donors:                   1
##########                         Heavy_Atoms:                  25
##########                          Grid_Score:          -27.043148
##########                     Grid_vdw_energy:          -27.124275
##########                      Grid_es_energy:            0.081127
##########           Internal_energy_repulsive:           15.784834

@<TRIPOS>MOLECULE
ZINC001625935330
 42 44 1 0 0
SMALL
USER_CHARGES


@<TRIPOS>ATOM
      1 C1         -7.7629    3.9175   50.1289 C.3     1  ZINC001625935330   -0.1600
      2 C2         -7.1287    3.7581   51.5121 C.3     1  ZINC001625935330    0.1800
      3 H3         -7.3644    4.6300   52.1225 H       1  ZINC001625935330    0.1000
      4 N4         -7.6581    2.5535   52.1562 N.am    1  ZINC001625935330   -0.7100
      5 C5         -7.7257    2.4824   53.5004 C.2     1  ZINC001625935330    0.5800
      6 O6         -7.3460    3.4168   54.1782 O.2     1  ZINC001625935330   -0.5300
      7 C7         -8.2629    1.2648   54.1519 C.ar    1  ZINC001625935330    0.0800
      8 C8         -8.1783    1.1289   55.5332 C.ar    1  ZINC001625935330   -0.1000
      9 C9         -8.6905   -0.0258   56.1314 C.ar    1  ZINC001625935330    0.0000
     10 C10        -8.6235   -0.2155   57.6014 C.ar    1  ZINC001625935330   -0.0600
     11 C11        -8.0509    0.7660   58.4078 C.ar    1  ZINC001625935330   -0.1000
     12 C12        -7.9917    0.5845   59.7747 C.ar    1  ZINC001625935330   -0.1200
     13 C13        -8.4996   -0.5691   60.3444 C.ar    1  ZINC001625935330   -0.1100
     14 C14        -9.0692   -1.5469   59.5486 C.ar    1  ZINC001625935330   -0.1200
     15 C15        -9.1384   -1.3734   58.1812 C.ar    1  ZINC001625935330   -0.1000
     16 C16        -9.2674   -0.9965   55.3089 C.ar    1  ZINC001625935330   -0.1400
     17 C17        -9.3120   -0.7839   53.9424 C.ar    1  ZINC001625935330    0.1100
     18 N18        -8.8252    0.3167   53.4112 N.ar    1  ZINC001625935330   -0.4600
     19 C19        -5.6337    3.6349   51.3682 C.ar    1  ZINC001625935330   -0.0900
     20 C20        -4.8028    4.5513   51.9874 C.ar    1  ZINC001625935330   -0.0800
     21 C21        -3.4289    4.4455   51.8604 C.ar    1  ZINC001625935330   -0.1100
     22 C22        -2.8786    3.4239   51.1150 C.ar    1  ZINC001625935330   -0.0700
     23 C23        -3.7115    2.4949   50.4875 C.ar    1  ZINC001625935330   -0.0200
     24 C24        -3.1472    1.4315   49.7120 C.1     1  ZINC001625935330    0.2500
     25 N25        -2.6996    0.5879   49.0968 N.1     1  ZINC001625935330   -0.4100
     26 C26        -5.0967    2.6048   50.6238 C.ar    1  ZINC001625935330   -0.0600
     27 H27        -7.3690    4.8138   49.6497 H       1  ZINC001625935330    0.0700
     28 H28        -7.5273    3.0457   49.5186 H       1  ZINC001625935330    0.0600
     29 H29        -8.8442    4.0066   50.2330 H       1  ZINC001625935330    0.0700
     30 H30        -7.9602    1.8072   51.6153 H       1  ZINC001625935330    0.4100
     31 H31        -7.7240    1.9028   56.1340 H       1  ZINC001625935330    0.1500
     32 H32        -7.6537    1.6670   57.9640 H       1  ZINC001625935330    0.1300
     33 H33        -7.5478    1.3444   60.4006 H       1  ZINC001625935330    0.1300
     34 H34        -8.4509   -0.7073   61.4144 H       1  ZINC001625935330    0.1300
     35 H35        -9.4639   -2.4457   59.9987 H       1  ZINC001625935330    0.1300
     36 H36        -9.5837   -2.1372   57.5609 H       1  ZINC001625935330    0.1300
     37 H37        -9.6735   -1.9021   55.7345 H       1  ZINC001625935330    0.1400
     38 H38        -9.7567   -1.5316   53.3024 H       1  ZINC001625935330    0.1700
     39 H39        -5.2284    5.3533   52.5723 H       1  ZINC001625935330    0.1300
     40 H40        -2.7860    5.1648   52.3458 H       1  ZINC001625935330    0.1400
     41 H41        -1.8062    3.3427   51.0163 H       1  ZINC001625935330    0.1400
     42 H42        -5.7464    1.8897   50.1412 H       1  ZINC001625935330    0.1400
@<TRIPOS>BOND
     1     1     2    1
     2     1    27    1
     3     1    28    1
     4     1    29    1
     5     2     3    1
     6     2     4    1
     7     2    19    1
     8     4     5   am
     9     4    30    1
    10     5     6    2
    11     5     7    1
    12     7    18   ar
    13     7     8   ar
    14     8     9   ar
    15     8    31    1
    16     9    10    1
    17     9    16   ar
    18    10    15   ar
    19    10    11   ar
    20    11    12   ar
    21    11    32    1
    22    12    13   ar
    23    12    33    1
    24    13    14   ar
    25    13    34    1
    26    14    15   ar
    27    14    35    1
    28    15    36    1
    29    16    17   ar
    30    16    37    1
    31    17    18   ar
    32    17    38    1
    33    19    26   ar
    34    19    20   ar
    35    20    21   ar
    36    20    39    1
    37    21    22   ar
    38    21    40    1
    39    22    23   ar
    40    22    41    1
    41    23    24    1
    42    23    26   ar
    43    24    25    3
    44    26    42    1
@<TRIPOS>SUBSTRUCTURE
     1 ZINC001625935330        1 TEMP              0 ****  ****    0 ROOT


##########                                Name:    ZINC000979274057
##########                DOCK_Rotatable_Bonds:                   6
##########                         Heavy_Atoms:                  24
##########                    Molecular_Weight:              330.39
##########                DOCK_Rotatable_Bonds:                   6
##########                       Formal_Charge:          0.00999946
##########                     HBond_Acceptors:                   8
##########                        HBond_Donors:                   1
##########                         Heavy_Atoms:                  24
##########                          Grid_Score:          -26.980774
##########                     Grid_vdw_energy:          -26.205376
##########                      Grid_es_energy:           -0.775399
##########           Internal_energy_repulsive:            8.978582

@<TRIPOS>MOLECULE
ZINC000979274057
 46 48 1 0 0
SMALL
USER_CHARGES


@<TRIPOS>ATOM
      1 C1        -13.9148    0.4056   60.0549 C.3     1  ZINC000979274057   -0.1400
      2 C2        -13.1435    0.1511   61.3515 C.3     1  ZINC000979274057    0.1000
      3 H3        -13.3466   -0.8607   61.7025 H       1  ZINC000979274057    0.0600
      4 N4        -13.5689    1.1181   62.3722 N.3     1  ZINC000979274057   -0.6700
      5 C5        -14.9857    0.9339   62.7139 C.3     1  ZINC000979274057    0.1300
      6 C6        -15.1606    1.0418   64.2068 C.ar    1  ZINC000979274057    0.3200
      7 N7        -15.7882    0.0779   64.8504 N.ar    1  ZINC000979274057   -0.5200
      8 C8        -15.9606    0.1382   66.1610 C.ar    1  ZINC000979274057    0.1500
      9 C9        -15.4708    1.2331   66.8557 C.ar    1  ZINC000979274057   -0.2300
     10 C10       -14.8166    2.2263   66.1442 C.ar    1  ZINC000979274057    0.1500
     11 N11       -14.6772    2.0948   64.8349 N.ar    1  ZINC000979274057   -0.5000
     12 C12       -11.6440    0.3096   61.0924 C.3     1  ZINC000979274057    0.0800
     13 H13       -11.4896    0.9751   60.2431 H       1  ZINC000979274057    0.0700
     14 C14       -11.0294   -1.0612   60.7869 C.3     1  ZINC000979274057    0.0800
     15 N15        -9.5668   -0.9112   60.7276 N.am    1  ZINC000979274057   -0.6000
     16 C16        -8.8625   -1.3861   59.6812 C.2     1  ZINC000979274057    0.6100
     17 O17        -7.6541   -1.2521   59.6505 O.2     1  ZINC000979274057   -0.5400
     18 C18        -9.5563   -2.0677   58.5746 C.2     1  ZINC000979274057   -0.0600
     19 C19        -9.8715   -1.5241   57.3638 C.2     1  ZINC000979274057    0.0400
     20 N20       -10.4986   -2.4893   56.6511 N.pl3   1  ZINC000979274057   -0.4600
     21 C21       -11.0178   -2.3568   55.2876 C.3     1  ZINC000979274057    0.0700
     22 C22       -10.5597   -3.6028   57.4268 C.2     1  ZINC000979274057    0.1900
     23 N23        -9.9934   -3.3530   58.5721 N.2     1  ZINC000979274057   -0.4600
     24 C24        -8.8957   -0.2271   61.8442 C.3     1  ZINC000979274057    0.0500
     25 C25        -9.6143    1.1031   62.0981 C.3     1  ZINC000979274057    0.0500
     26 O26       -11.0147    0.8608   62.2517 O.3     1  ZINC000979274057   -0.3600
     27 H27       -14.9831    0.2926   60.2395 H       1  ZINC000979274057    0.0600
     28 H28       -13.7118    1.4173   59.7039 H       1  ZINC000979274057    0.0700
     29 H29       -13.5992   -0.3119   59.2975 H       1  ZINC000979274057    0.0600
     30 H30       -12.9876    1.0552   63.1945 H       1  ZINC000979274057    0.3500
     31 H31       -15.5811    1.7030   62.2218 H       1  ZINC000979274057    0.1000
     32 H32       -15.3152   -0.0499   62.3796 H       1  ZINC000979274057    0.0600
     33 H33       -16.4760   -0.6548   66.6823 H       1  ZINC000979274057    0.1700
     34 H34       -15.5966    1.3105   67.9256 H       1  ZINC000979274057    0.1500
     35 H35       -14.4223    3.0940   66.6521 H       1  ZINC000979274057    0.1700
     36 H36       -11.2945   -1.7662   61.5749 H       1  ZINC000979274057    0.0700
     37 H37       -11.4004   -1.4245   59.8286 H       1  ZINC000979274057    0.1000
     38 H38        -9.6612   -0.5167   57.0365 H       1  ZINC000979274057    0.1900
     39 H39       -10.2417   -2.6351   54.5746 H       1  ZINC000979274057    0.0800
     40 H40       -11.8792   -3.0127   55.1615 H       1  ZINC000979274057    0.0900
     41 H41       -11.3188   -1.3240   55.1121 H       1  ZINC000979274057    0.0900
     42 H42       -11.0028   -4.5445   57.1384 H       1  ZINC000979274057    0.2100
     43 H43        -8.9459   -0.8480   62.7388 H       1  ZINC000979274057    0.0700
     44 H44        -7.8538   -0.0380   61.5861 H       1  ZINC000979274057    0.1500
     45 H45        -9.2223    1.5611   63.0064 H       1  ZINC000979274057    0.1100
     46 H46        -9.4516    1.7718   61.2529 H       1  ZINC000979274057    0.0500
@<TRIPOS>BOND
     1     1     2    1
     2     1    27    1
     3     1    28    1
     4     1    29    1
     5     2     3    1
     6     2     4    1
     7     2    12    1
     8     4     5    1
     9     4    30    1
    10     5     6    1
    11     5    31    1
    12     5    32    1
    13     6    11   ar
    14     6     7   ar
    15     7     8   ar
    16     8     9   ar
    17     8    33    1
    18     9    10   ar
    19     9    34    1
    20    10    11   ar
    21    10    35    1
    22    12    13    1
    23    12    26    1
    24    12    14    1
    25    14    15    1
    26    14    36    1
    27    14    37    1
    28    15    16   am
    29    15    24    1
    30    16    17    2
    31    16    18    1
    32    18    23    1
    33    18    19    2
    34    19    20    1
    35    19    38    1
    36    20    21    1
    37    20    22    1
    38    21    39    1
    39    21    40    1
    40    21    41    1
    41    22    23    2
    42    22    42    1
    43    24    25    1
    44    24    43    1
    45    24    44    1
    46    25    26    1
    47    25    45    1
    48    25    46    1
@<TRIPOS>SUBSTRUCTURE
     1 ZINC000979274057        1 TEMP              0 ****  ****    0 ROOT


##########                                Name:    ZINC000291574087
##########                DOCK_Rotatable_Bonds:                   8
##########                         Heavy_Atoms:                  23
##########                    Molecular_Weight:             387.249
##########                DOCK_Rotatable_Bonds:                   8
##########                       Formal_Charge:          -0.0400007
##########                     HBond_Acceptors:                   6
##########                        HBond_Donors:                   2
##########                         Heavy_Atoms:                  23
##########                          Grid_Score:          -26.939913
##########                     Grid_vdw_energy:          -24.930273
##########                      Grid_es_energy:           -2.009640
##########           Internal_energy_repulsive:           24.714354

@<TRIPOS>MOLECULE
ZINC000291574087
 43 44 1 0 0
SMALL
USER_CHARGES


@<TRIPOS>ATOM
      1 C1         -8.3884   -0.3651   62.3747 C.3     1  ZINC000291574087    0.0200
      2 O2         -9.6016   -0.9040   61.8456 O.3     1  ZINC000291574087   -0.3700
      3 C3         -9.8500   -0.5489   60.4839 C.3     1  ZINC000291574087    0.1400
      4 C4        -11.2007   -1.1191   60.0464 C.3     1  ZINC000291574087   -0.1500
      5 C5         -8.7430   -1.1224   59.5971 C.3     1  ZINC000291574087    0.0900
      6 N6         -8.9642   -0.7071   58.2097 N.am    1  ZINC000291574087   -0.6900
      7 C7         -8.1420    0.1941   57.6367 C.2     1  ZINC000291574087    0.5100
      8 O8         -7.2191    0.6625   58.2705 O.2     1  ZINC000291574087   -0.5100
      9 C9         -8.3665    0.6161   56.2219 C.2     1  ZINC000291574087    0.5100
     10 O10        -9.3645    0.2561   55.6322 O.2     1  ZINC000291574087   -0.4900
     11 N11        -7.4609    1.3968   55.5999 N.am    1  ZINC000291574087   -0.6400
     12 C12        -7.6712    1.7920   54.2748 C.ar    1  ZINC000291574087    0.1300
     13 C13        -7.1508    1.0366   53.2327 C.ar    1  ZINC000291574087   -0.1000
     14 C14        -7.3604    1.4290   51.9247 C.ar    1  ZINC000291574087   -0.0400
     15 C15        -6.7954    0.6089   50.7936 C.3     1  ZINC000291574087   -0.1300
     16 C16        -8.0882    2.5732   51.6515 C.ar    1  ZINC000291574087   -0.0900
     17 Br17       -8.3729    3.1047   49.8592 Br      1  ZINC000291574087   -0.0300
     18 C18        -8.6090    3.3295   52.6870 C.ar    1  ZINC000291574087   -0.1000
     19 C19        -8.4072    2.9400   53.9980 C.ar    1  ZINC000291574087    0.0700
     20 F20        -8.9154    3.6781   55.0089 F       1  ZINC000291574087   -0.1300
     21 C21        -9.8724    0.9751   60.3502 C.3     1  ZINC000291574087   -0.1900
     22 C22       -11.1291    1.6137   59.7555 C.3     1  ZINC000291574087   -0.1700
     23 C23       -10.8368    1.7492   61.2512 C.3     1  ZINC000291574087   -0.1600
     24 H24        -8.2727   -0.6802   63.4118 H       1  ZINC000291574087    0.0900
     25 H25        -7.5438   -0.7274   61.7886 H       1  ZINC000291574087    0.0400
     26 H26        -8.4233    0.7233   62.3275 H       1  ZINC000291574087    0.0500
     27 H27       -11.9894   -0.7106   60.6783 H       1  ZINC000291574087    0.0700
     28 H28       -11.3902   -0.8482   59.0078 H       1  ZINC000291574087    0.0800
     29 H29       -11.1848   -2.2048   60.1417 H       1  ZINC000291574087    0.0700
     30 H30        -7.7761   -0.7518   59.9375 H       1  ZINC000291574087    0.0900
     31 H31        -8.7566   -2.2107   59.6570 H       1  ZINC000291574087    0.0800
     32 H32        -9.7026   -1.0807   57.7035 H       1  ZINC000291574087    0.4200
     33 H33        -6.6635    1.6846   56.0710 H       1  ZINC000291574087    0.4300
     34 H34        -6.5823    0.1431   53.4443 H       1  ZINC000291574087    0.1600
     35 H35        -7.5231   -0.1447   50.4925 H       1  ZINC000291574087    0.0800
     36 H36        -6.5753    1.2599   49.9475 H       1  ZINC000291574087    0.0800
     37 H37        -5.8793    0.1184   51.1227 H       1  ZINC000291574087    0.0800
     38 H38        -9.1765    4.2226   52.4705 H       1  ZINC000291574087    0.1500
     39 H39        -8.9140    1.4410   60.1210 H       1  ZINC000291574087    0.1100
     40 H40       -10.9978    2.5000   59.1347 H       1  ZINC000291574087    0.1000
     41 H41       -11.9399    0.9481   59.4594 H       1  ZINC000291574087    0.1000
     42 H42       -11.4553    1.1727   61.9391 H       1  ZINC000291574087    0.1000
     43 H43       -10.5130    2.7245   61.6144 H       1  ZINC000291574087    0.1000
@<TRIPOS>BOND
     1     1     2    1
     2     1    24    1
     3     1    25    1
     4     1    26    1
     5     2     3    1
     6     3     4    1
     7     3     5    1
     8     3    21    1
     9     4    27    1
    10     4    28    1
    11     4    29    1
    12     5     6    1
    13     5    30    1
    14     5    31    1
    15     6     7   am
    16     6    32    1
    17     7     8    2
    18     7     9    1
    19     9    10    2
    20     9    11   am
    21    11    12    1
    22    11    33    1
    23    12    19   ar
    24    12    13   ar
    25    13    14   ar
    26    13    34    1
    27    14    15    1
    28    14    16   ar
    29    15    35    1
    30    15    36    1
    31    15    37    1
    32    16    17    1
    33    16    18   ar
    34    18    19   ar
    35    18    38    1
    36    19    20    1
    37    21    23    1
    38    21    22    1
    39    21    39    1
    40    22    23    1
    41    22    40    1
    42    22    41    1
    43    23    42    1
    44    23    43    1
@<TRIPOS>SUBSTRUCTURE
     1 ZINC000291574087        1 TEMP              0 ****  ****    0 ROOT


##########                                Name:    ZINC000899027326
##########                DOCK_Rotatable_Bonds:                   5
##########                         Heavy_Atoms:                  22
##########                    Molecular_Weight:             346.169
##########                DOCK_Rotatable_Bonds:                   5
##########                       Formal_Charge:           0.0300005
##########                     HBond_Acceptors:                   9
##########                        HBond_Donors:                   1
##########                         Heavy_Atoms:                  22
##########                          Grid_Score:          -26.936039
##########                     Grid_vdw_energy:          -24.571194
##########                      Grid_es_energy:           -2.364846
##########           Internal_energy_repulsive:            4.367435

@<TRIPOS>MOLECULE
ZINC000899027326
 35 36 1 0 0
SMALL
USER_CHARGES


@<TRIPOS>ATOM
      1 C1        -10.9981   -0.3474   56.7472 C.3     1  ZINC000899027326   -0.1500
      2 C2         -9.7129   -1.0944   57.1098 C.3     1  ZINC000899027326    0.1100
      3 H3         -9.1306   -1.3104   56.2141 H       1  ZINC000899027326    0.1400
      4 C4         -8.8912   -0.2925   58.0996 C.2     1  ZINC000899027326    0.5300
      5 O5         -8.4120    0.8083   57.9313 O.2     1  ZINC000899027326   -0.4500
      6 N6         -8.8048   -1.0576   59.2056 N.am    1  ZINC000899027326   -0.3700
      7 N7         -8.1232   -0.6825   60.3708 N.am    1  ZINC000899027326   -0.5000
      8 C8         -8.7498    0.0521   61.3112 C.2     1  ZINC000899027326    0.5200
      9 O9         -9.9041    0.3871   61.1493 O.2     1  ZINC000899027326   -0.4800
     10 C10        -8.0161    0.4570   62.5636 C.3     1  ZINC000899027326    0.0500
     11 O11        -8.8522    0.2299   63.7000 O.3     1  ZINC000899027326   -0.2700
     12 C12        -9.0621    1.2841   64.5323 C.ar    1  ZINC000899027326    0.1400
     13 C13        -9.3842    2.5275   64.0103 C.ar    1  ZINC000899027326   -0.1900
     14 C14        -9.5972    3.5980   64.8578 C.ar    1  ZINC000899027326   -0.0600
     15 C15        -9.4893    3.4303   66.2267 C.ar    1  ZINC000899027326   -0.0600
     16 Cl16       -9.7581    4.7769   67.2888 Cl      1  ZINC000899027326   -0.0500
     17 C17        -9.1680    2.1903   66.7507 C.ar    1  ZINC000899027326   -0.0600
     18 C18        -8.9598    1.1158   65.9068 C.ar    1  ZINC000899027326   -0.0500
     19 Cl19       -8.5567   -0.4397   66.5640 Cl      1  ZINC000899027326   -0.0300
     20 C20        -9.4510   -2.2193   59.0538 C.2     1  ZINC000899027326    0.7000
     21 O21        -9.5138   -3.0748   59.9148 O.2     1  ZINC000899027326   -0.5200
     22 N22       -10.0234   -2.3365   57.8384 N.am    1  ZINC000899027326   -0.6200
     23 C23       -10.8031   -3.4740   57.3440 C.3     1  ZINC000899027326    0.1200
     24 H24       -11.5602   -0.1294   57.6553 H       1  ZINC000899027326    0.0700
     25 H25       -10.7461    0.5855   56.2431 H       1  ZINC000899027326    0.0900
     26 H26       -11.6035   -0.9663   56.0849 H       1  ZINC000899027326    0.0900
     27 H27        -7.2003   -0.9515   60.5007 H       1  ZINC000899027326    0.4300
     28 H28        -7.1054   -0.1343   62.6585 H       1  ZINC000899027326    0.1100
     29 H29        -7.7583    1.5147   62.5078 H       1  ZINC000899027326    0.1100
     30 H30        -9.4683    2.6594   62.9416 H       1  ZINC000899027326    0.1500
     31 H31        -9.8477    4.5666   64.4511 H       1  ZINC000899027326    0.1500
     32 H32        -9.0842    2.0613   67.8197 H       1  ZINC000899027326    0.1500
     33 H33       -10.8597   -4.2395   58.1179 H       1  ZINC000899027326    0.0900
     34 H34       -11.8089   -3.1412   57.0880 H       1  ZINC000899027326    0.0700
     35 H35       -10.3208   -3.8877   56.4584 H       1  ZINC000899027326    0.0700
@<TRIPOS>BOND
     1     1     2    1
     2     1    24    1
     3     1    25    1
     4     1    26    1
     5     2     3    1
     6     2    22    1
     7     2     4    1
     8     4     5    2
     9     4     6   am
    10     6     7    1
    11     6    20   am
    12     7     8   am
    13     7    27    1
    14     8     9    2
    15     8    10    1
    16    10    11    1
    17    10    28    1
    18    10    29    1
    19    11    12    1
    20    12    18   ar
    21    12    13   ar
    22    13    14   ar
    23    13    30    1
    24    14    15   ar
    25    14    31    1
    26    15    16    1
    27    15    17   ar
    28    17    18   ar
    29    17    32    1
    30    18    19    1
    31    20    21    2
    32    20    22   am
    33    22    23    1
    34    23    33    1
    35    23    34    1
    36    23    35    1
@<TRIPOS>SUBSTRUCTURE
     1 ZINC000899027326        1 TEMP              0 ****  ****    0 ROOT


##########                                Name:    ZINC000464706598
##########                DOCK_Rotatable_Bonds:                   4
##########                         Heavy_Atoms:                  26
##########                    Molecular_Weight:             412.286
##########                DOCK_Rotatable_Bonds:                   4
##########                       Formal_Charge:           0.0100001
##########                     HBond_Acceptors:                   5
##########                        HBond_Donors:                   0
##########                         Heavy_Atoms:                  26
##########                          Grid_Score:          -26.819334
##########                     Grid_vdw_energy:          -25.871838
##########                      Grid_es_energy:           -0.947496
##########           Internal_energy_repulsive:           58.216415

@<TRIPOS>MOLECULE
ZINC000464706598
 44 47 1 0 0
SMALL
USER_CHARGES


@<TRIPOS>ATOM
      1 O1        -10.6081    1.0487   56.8866 O.2     1  ZINC000464706598   -0.5000
      2 C2        -10.8329    0.1929   57.7208 C.2     1  ZINC000464706598    0.5900
      3 C3        -10.7961    0.5334   59.1546 C.2     1  ZINC000464706598   -0.2800
      4 C4         -9.8074    0.1871   60.0539 C.2     1  ZINC000464706598    0.1300
      5 N5        -10.1575    0.6929   61.2504 N.pl3   1  ZINC000464706598   -0.3100
      6 C6         -9.4245    0.5687   62.4387 C.ar    1  ZINC000464706598    0.1700
      7 C7         -8.1523    0.0129   62.4162 C.ar    1  ZINC000464706598   -0.1300
      8 C8         -7.4320   -0.1079   63.5883 C.ar    1  ZINC000464706598   -0.0600
      9 C9         -7.9772    0.3237   64.7845 C.ar    1  ZINC000464706598   -0.1000
     10 Br10       -6.9884    0.1561   66.3876 Br      1  ZINC000464706598   -0.0400
     11 C11        -9.2446    0.8783   64.8096 C.ar    1  ZINC000464706598   -0.0700
     12 C12        -9.9671    1.0063   63.6395 C.ar    1  ZINC000464706598   -0.1100
     13 N13       -11.3769    1.3645   61.1079 N.2     1  ZINC000464706598   -0.2800
     14 C14       -11.7632    1.2805   59.8645 C.2     1  ZINC000464706598    0.0700
     15 N15       -11.1215   -1.0656   57.3343 N.am    1  ZINC000464706598   -0.6100
     16 C16       -11.4032   -2.1165   58.3250 C.3     1  ZINC000464706598    0.0400
     17 C17       -10.5288   -3.3333   58.0010 C.3     1  ZINC000464706598    0.0500
     18 O18       -10.7086   -3.6902   56.6284 O.3     1  ZINC000464706598   -0.3700
     19 C19       -10.3016   -2.6795   55.7028 C.3     1  ZINC000464706598    0.0500
     20 C20       -11.1699   -1.4279   55.9088 C.3     1  ZINC000464706598    0.1600
     21 H21       -12.1972   -1.6411   55.6133 H       1  ZINC000464706598    0.0900
     22 C22       -10.6285   -0.2924   55.0792 C.ar    1  ZINC000464706598   -0.0500
     23 C23       -11.4954    0.5324   54.3868 C.ar    1  ZINC000464706598   -0.1000
     24 C24       -10.9988    1.5740   53.6258 C.ar    1  ZINC000464706598   -0.1100
     25 C25        -9.6353    1.7913   53.5574 C.ar    1  ZINC000464706598   -0.1200
     26 C26        -8.7685    0.9672   54.2505 C.ar    1  ZINC000464706598   -0.1100
     27 C27        -9.2653   -0.0718   55.0150 C.ar    1  ZINC000464706598   -0.1000
     28 H28        -8.9174   -0.3848   59.8371 H       1  ZINC000464706598    0.1900
     29 H29        -7.7264   -0.3248   61.4829 H       1  ZINC000464706598    0.1400
     30 H30        -6.4424   -0.5402   63.5713 H       1  ZINC000464706598    0.1500
     31 H31        -9.6679    1.2148   65.7445 H       1  ZINC000464706598    0.1500
     32 H32       -10.9561    1.4395   63.6596 H       1  ZINC000464706598    0.1500
     33 H33       -12.6674    1.7025   59.4513 H       1  ZINC000464706598    0.2100
     34 H34       -11.1680   -1.7512   59.3247 H       1  ZINC000464706598    0.1200
     35 H35       -12.4554   -2.3966   58.2739 H       1  ZINC000464706598    0.0800
     36 H36        -9.4820   -3.0872   58.1791 H       1  ZINC000464706598    0.0600
     37 H37       -10.8198   -4.1702   58.6359 H       1  ZINC000464706598    0.1100
     38 H38        -9.2539   -2.4309   55.8725 H       1  ZINC000464706598    0.0600
     39 H39       -10.4292   -3.0459   54.6842 H       1  ZINC000464706598    0.1100
     40 H40       -12.5606    0.3626   54.4402 H       1  ZINC000464706598    0.1100
     41 H41       -11.6760    2.2179   53.0843 H       1  ZINC000464706598    0.1200
     42 H42        -9.2474    2.6047   52.9623 H       1  ZINC000464706598    0.1200
     43 H43        -7.7032    1.1367   54.1968 H       1  ZINC000464706598    0.1200
     44 H44        -8.5881   -0.7157   55.5565 H       1  ZINC000464706598    0.1100
@<TRIPOS>BOND
     1     1     2    2
     2     2     3    1
     3     2    15   am
     4     3    14    1
     5     3     4    2
     6     4     5    1
     7     4    28    1
     8     5     6    1
     9     5    13    1
    10     6    12   ar
    11     6     7   ar
    12     7     8   ar
    13     7    29    1
    14     8     9   ar
    15     8    30    1
    16     9    10    1
    17     9    11   ar
    18    11    12   ar
    19    11    31    1
    20    12    32    1
    21    13    14    2
    22    14    33    1
    23    15    20    1
    24    15    16    1
    25    16    17    1
    26    16    34    1
    27    16    35    1
    28    17    18    1
    29    17    36    1
    30    17    37    1
    31    18    19    1
    32    19    20    1
    33    19    38    1
    34    19    39    1
    35    20    21    1
    36    20    22    1
    37    22    27   ar
    38    22    23   ar
    39    23    24   ar
    40    23    40    1
    41    24    25   ar
    42    24    41    1
    43    25    26   ar
    44    25    42    1
    45    26    27   ar
    46    26    43    1
    47    27    44    1
@<TRIPOS>SUBSTRUCTURE
     1 ZINC000464706598        1 TEMP              0 ****  ****    0 ROOT


##########                                Name:    ZINC001016082614
##########                DOCK_Rotatable_Bonds:                   6
##########                         Heavy_Atoms:                  25
##########                    Molecular_Weight:             348.402
##########                DOCK_Rotatable_Bonds:                   6
##########                       Formal_Charge:         -0.00999998
##########                     HBond_Acceptors:                   8
##########                        HBond_Donors:                   1
##########                         Heavy_Atoms:                  25
##########                          Grid_Score:          -26.803265
##########                     Grid_vdw_energy:          -27.697958
##########                      Grid_es_energy:            0.894692
##########           Internal_energy_repulsive:           29.741928

@<TRIPOS>MOLECULE
ZINC001016082614
 49 51 1 0 0
SMALL
USER_CHARGES


@<TRIPOS>ATOM
      1 C1        -10.6366   -2.7653   55.8548 C.3     1  ZINC001016082614   -0.1700
      2 C2        -10.8178   -3.1120   57.3339 C.3     1  ZINC001016082614    0.1000
      3 N3        -10.9051   -1.8775   58.1178 N.am    1  ZINC001016082614   -0.6100
      4 C4        -12.1097   -1.3465   58.4069 C.2     1  ZINC001016082614    0.6100
      5 O5        -12.1823   -0.3212   59.0580 O.2     1  ZINC001016082614   -0.5100
      6 C6        -13.3337   -2.0051   57.9366 C.2     1  ZINC001016082614   -0.1100
      7 C7        -14.1067   -1.6262   56.8794 C.2     1  ZINC001016082614    0.0600
      8 N8        -15.1218   -2.4922   56.7944 N.2     1  ZINC001016082614   -0.4900
      9 C9        -15.0053   -3.3786   57.7464 C.2     1  ZINC001016082614    0.2000
     10 O10       -13.9105   -3.1096   58.4646 O.3     1  ZINC001016082614   -0.1900
     11 C11        -9.6830   -1.2199   58.5873 C.3     1  ZINC001016082614    0.1600
     12 H12        -8.8272   -1.7130   58.1265 H       1  ZINC001016082614    0.0800
     13 C13        -9.7089    0.2349   58.1285 C.3     1  ZINC001016082614   -0.1300
     14 C14        -8.2944    0.7454   58.0045 C.3     1  ZINC001016082614   -0.1300
     15 C15        -7.8509    1.4007   59.3250 C.3     1  ZINC001016082614    0.1000
     16 N16        -8.3102    0.6415   60.5046 N.am    1  ZINC001016082614   -0.6000
     17 C17        -8.7972    1.3217   61.5613 C.2     1  ZINC001016082614    0.5000
     18 O18        -8.8511    2.5328   61.5302 O.2     1  ZINC001016082614   -0.5200
     19 C19        -9.2746    0.5772   62.7816 C.3     1  ZINC001016082614    0.1100
     20 H20        -9.8013   -0.3304   62.4868 H       1  ZINC001016082614    0.1100
     21 C21       -10.1974    1.4791   63.6309 C.3     1  ZINC001016082614   -0.1200
     22 C22        -9.1982    2.0912   64.6398 C.3     1  ZINC001016082614   -0.1600
     23 C23        -8.0695    1.0858   64.7007 C.2     1  ZINC001016082614    0.5300
     24 O24        -7.2244    1.0419   65.5695 O.2     1  ZINC001016082614   -0.5300
     25 N25        -8.1394    0.2460   63.6508 N.am    1  ZINC001016082614   -0.7100
     26 C26        -8.2597   -0.8018   60.5730 C.3     1  ZINC001016082614    0.1300
     27 C27        -9.5914   -1.3909   60.0454 C.3     1  ZINC001016082614   -0.1600
     28 H28       -10.5717   -3.6838   55.2716 H       1  ZINC001016082614    0.0700
     29 H29       -11.4882   -2.1771   55.5126 H       1  ZINC001016082614    0.0500
     30 H30        -9.7211   -2.1879   55.7264 H       1  ZINC001016082614    0.0600
     31 H31       -11.7334   -3.6894   57.4623 H       1  ZINC001016082614    0.0900
     32 H32        -9.9663   -3.7002   57.6761 H       1  ZINC001016082614    0.0900
     33 H33       -13.9314   -0.7813   56.2300 H       1  ZINC001016082614    0.2000
     34 H34       -15.6831   -4.2008   57.9226 H       1  ZINC001016082614    0.2600
     35 H35       -10.2059    0.3023   57.1607 H       1  ZINC001016082614    0.0700
     36 H36       -10.2500    0.8369   58.8584 H       1  ZINC001016082614    0.0800
     37 H37        -7.6291   -0.0863   57.7725 H       1  ZINC001016082614    0.0700
     38 H38        -8.2446    1.4807   57.2015 H       1  ZINC001016082614    0.0800
     39 H39        -6.7626    1.4589   59.3433 H       1  ZINC001016082614    0.0700
     40 H40        -8.2586    2.4105   59.3734 H       1  ZINC001016082614    0.0800
     41 H41       -10.6570    2.2543   63.0178 H       1  ZINC001016082614    0.1000
     42 H42       -10.9564    0.8880   64.1434 H       1  ZINC001016082614    0.1000
     43 H43        -8.8333    3.0531   64.2794 H       1  ZINC001016082614    0.1100
     44 H44        -9.6641    2.2014   65.6190 H       1  ZINC001016082614    0.1100
     45 H45        -7.5196   -0.4827   63.4906 H       1  ZINC001016082614    0.4200
     46 H46        -7.4328   -1.1653   59.9628 H       1  ZINC001016082614    0.0800
     47 H47        -8.1101   -1.1110   61.6074 H       1  ZINC001016082614    0.0900
     48 H48       -10.4267   -0.8807   60.5250 H       1  ZINC001016082614    0.0900
     49 H49        -9.6357   -2.4534   60.2845 H       1  ZINC001016082614    0.0700
@<TRIPOS>BOND
     1     1     2    1
     2     1    28    1
     3     1    29    1
     4     1    30    1
     5     2     3    1
     6     2    31    1
     7     2    32    1
     8     3     4   am
     9     3    11    1
    10     4     5    2
    11     4     6    1
    12     6    10    1
    13     6     7    2
    14     7     8    1
    15     7    33    1
    16     8     9    2
    17     9    10    1
    18     9    34    1
    19    11    12    1
    20    11    27    1
    21    11    13    1
    22    13    14    1
    23    13    35    1
    24    13    36    1
    25    14    15    1
    26    14    37    1
    27    14    38    1
    28    15    16    1
    29    15    39    1
    30    15    40    1
    31    16    17   am
    32    16    26    1
    33    17    18    2
    34    17    19    1
    35    19    20    1
    36    19    25    1
    37    19    21    1
    38    21    22    1
    39    21    41    1
    40    21    42    1
    41    22    23    1
    42    22    43    1
    43    22    44    1
    44    23    24    2
    45    23    25   am
    46    25    45    1
    47    26    27    1
    48    26    46    1
    49    26    47    1
    50    27    48    1
    51    27    49    1
@<TRIPOS>SUBSTRUCTURE
     1 ZINC001016082614        1 TEMP              0 ****  ****    0 ROOT


##########                                Name:    ZINC000561219098
##########                DOCK_Rotatable_Bonds:                   4
##########                         Heavy_Atoms:                  28
##########                    Molecular_Weight:             423.273
##########                DOCK_Rotatable_Bonds:                   4
##########                       Formal_Charge:          0.00999953
##########                     HBond_Acceptors:                   9
##########                        HBond_Donors:                   1
##########                         Heavy_Atoms:                  28
##########                          Grid_Score:          -26.783472
##########                     Grid_vdw_energy:          -25.416851
##########                      Grid_es_energy:           -1.366621
##########           Internal_energy_repulsive:           10.739760

@<TRIPOS>MOLECULE
ZINC000561219098
 45 48 1 0 0
SMALL
USER_CHARGES


@<TRIPOS>ATOM
      1 C1        -14.3942    1.6658   46.0384 C.3     1  ZINC000561219098    0.0700
      2 N2        -14.0409    1.8507   47.4480 N.pl3   1  ZINC000561219098   -0.4500
      3 C3        -13.3015    2.8807   47.9511 C.2     1  ZINC000561219098   -0.0100
      4 C4        -13.1853    2.7133   49.2819 C.2     1  ZINC000561219098   -0.1700
      5 C5        -13.8833    1.5269   49.6213 C.2     1  ZINC000561219098   -0.1100
      6 C6        -14.0267    0.9457   50.9805 C.2     1  ZINC000561219098    0.1600
      7 N7        -14.7968   -0.0722   51.3049 N.2     1  ZINC000561219098   -0.2700
      8 N8        -14.6582   -0.3211   52.6759 N.pl3   1  ZINC000561219098   -0.4700
      9 C9        -13.7699    0.5875   53.1807 C.2     1  ZINC000561219098    0.0300
     10 C10       -13.3287    0.6914   54.5812 C.2     1  ZINC000561219098    0.5900
     11 O11       -14.0920    1.1114   55.4298 O.2     1  ZINC000561219098   -0.5000
     12 N12       -12.0788    0.3211   54.9230 N.am    1  ZINC000561219098   -0.6100
     13 C13       -11.1374   -0.1899   53.9140 C.3     1  ZINC000561219098    0.0500
     14 C14       -10.5448   -1.5068   54.4286 C.3     1  ZINC000561219098    0.0500
     15 O15       -10.0191   -1.3046   55.7426 O.3     1  ZINC000561219098   -0.3700
     16 C16       -10.9990   -0.9302   56.7139 C.3     1  ZINC000561219098    0.1200
     17 H17       -11.7797   -1.6897   56.7549 H       1  ZINC000561219098    0.0900
     18 C18       -10.3457   -0.8063   58.0661 C.ar    1  ZINC000561219098   -0.0500
     19 C19        -9.2411    0.0083   58.2275 C.ar    1  ZINC000561219098   -0.1000
     20 C20        -8.6409    0.1227   59.4698 C.ar    1  ZINC000561219098    0.1200
     21 F21        -7.5613    0.9194   59.6280 F       1  ZINC000561219098   -0.1200
     22 C22        -9.1482   -0.5798   60.5507 C.ar    1  ZINC000561219098   -0.0600
     23 Cl23       -8.3969   -0.4369   62.1093 Cl      1  ZINC000561219098   -0.0300
     24 C24       -10.2537   -1.3948   60.3877 C.ar    1  ZINC000561219098   -0.0700
     25 C25       -10.8555   -1.5040   59.1470 C.ar    1  ZINC000561219098   -0.0300
     26 Cl26      -12.2434   -2.5265   58.9429 Cl      1  ZINC000561219098   -0.0400
     27 C27       -11.6130    0.4215   56.3153 C.3     1  ZINC000561219098    0.0900
     28 C28       -13.3602    1.3843   52.1337 C.2     1  ZINC000561219098   -0.1700
     29 C29       -14.4024    1.0249   48.4693 C.2     1  ZINC000561219098    0.0300
     30 H30       -15.3377    2.1707   45.8310 H       1  ZINC000561219098    0.0800
     31 H31       -13.6105    2.0874   45.4090 H       1  ZINC000561219098    0.0900
     32 H32       -14.4973    0.6016   45.8261 H       1  ZINC000561219098    0.0900
     33 H33       -12.8802    3.6935   47.3782 H       1  ZINC000561219098    0.1700
     34 H34       -12.6579    3.3629   49.9648 H       1  ZINC000561219098    0.1400
     35 H35       -15.1127   -1.0149   53.1787 H       1  ZINC000561219098    0.4400
     36 H36       -11.6643   -0.3661   52.9762 H       1  ZINC000561219098    0.1000
     37 H37       -10.3389    0.5352   53.7564 H       1  ZINC000561219098    0.0900
     38 H38       -11.3239   -2.2684   54.4613 H       1  ZINC000561219098    0.0700
     39 H39        -9.7453   -1.8311   53.7625 H       1  ZINC000561219098    0.1200
     40 H40        -8.8460    0.5555   57.3843 H       1  ZINC000561219098    0.1600
     41 H41       -10.6494   -1.9431   61.2299 H       1  ZINC000561219098    0.1600
     42 H42       -10.8610    1.2058   56.4010 H       1  ZINC000561219098    0.0900
     43 H43       -12.4565    0.6481   56.9675 H       1  ZINC000561219098    0.1100
     44 H44       -12.6581    2.2030   52.1921 H       1  ZINC000561219098    0.1600
     45 H45       -14.9922    0.1246   48.3788 H       1  ZINC000561219098    0.1700
@<TRIPOS>BOND
     1     1     2    1
     2     1    30    1
     3     1    31    1
     4     1    32    1
     5     2    29    1
     6     2     3    1
     7     3     4    2
     8     3    33    1
     9     4     5    1
    10     4    34    1
    11     5     6    1
    12     5    29    2
    13     6    28    1
    14     6     7    2
    15     7     8    1
    16     8     9    1
    17     8    35    1
    18     9    10    1
    19     9    28    2
    20    10    11    2
    21    10    12   am
    22    12    27    1
    23    12    13    1
    24    13    14    1
    25    13    36    1
    26    13    37    1
    27    14    15    1
    28    14    38    1
    29    14    39    1
    30    15    16    1
    31    16    17    1
    32    16    18    1
    33    16    27    1
    34    18    25   ar
    35    18    19   ar
    36    19    20   ar
    37    19    40    1
    38    20    21    1
    39    20    22   ar
    40    22    23    1
    41    22    24   ar
    42    24    25   ar
    43    24    41    1
    44    25    26    1
    45    27    42    1
    46    27    43    1
    47    28    44    1
    48    29    45    1
@<TRIPOS>SUBSTRUCTURE
     1 ZINC000561219098        1 TEMP              0 ****  ****    0 ROOT


##########                                Name:    ZINC001060620810
##########                DOCK_Rotatable_Bonds:                   5
##########                         Heavy_Atoms:                  24
##########                    Molecular_Weight:             332.421
##########                DOCK_Rotatable_Bonds:                   5
##########                       Formal_Charge:           0.0299998
##########                     HBond_Acceptors:                   6
##########                        HBond_Donors:                   2
##########                         Heavy_Atoms:                  24
##########                          Grid_Score:          -26.778496
##########                     Grid_vdw_energy:          -26.268410
##########                      Grid_es_energy:           -0.510086
##########           Internal_energy_repulsive:            9.458207

@<TRIPOS>MOLECULE
ZINC001060620810
 49 52 1 0 0
SMALL
USER_CHARGES


@<TRIPOS>ATOM
      1 O1         -6.5387   -0.3185   52.7446 O.2     1  ZINC001060620810   -0.5400
      2 C2         -7.0002    0.7939   52.6013 C.2     1  ZINC001060620810    0.5500
      3 N3         -8.0194    1.2062   53.3808 N.am    1  ZINC001060620810   -0.7200
      4 C4         -8.5685    0.3114   54.4026 C.3     1  ZINC001060620810    0.1400
      5 C5         -9.1630    1.1420   55.5417 C.3     1  ZINC001060620810   -0.1300
      6 C6         -9.7366    0.2076   56.6088 C.3     1  ZINC001060620810   -0.1300
      7 C7        -10.8302   -0.6644   55.9887 C.3     1  ZINC001060620810    0.1600
      8 N8        -11.8976    0.1909   55.4640 N.pl3   1  ZINC001060620810   -0.6900
      9 C9        -13.2090   -0.2561   55.4688 C.ar    1  ZINC001060620810    0.5600
     10 N10       -14.1454    0.4832   54.8934 N.ar    1  ZINC001060620810   -0.5400
     11 C11       -15.4067    0.0841   54.8757 C.ar    1  ZINC001060620810    0.1700
     12 C12       -15.7438   -1.1194   55.4789 C.ar    1  ZINC001060620810   -0.0700
     13 F13       -17.0227   -1.5552   55.4837 F       1  ZINC001060620810   -0.1300
     14 C14       -14.7379   -1.8655   56.0767 C.ar    1  ZINC001060620810    0.1800
     15 N15       -13.4962   -1.4093   56.0535 N.ar    1  ZINC001060620810   -0.5500
     16 C16       -10.2358   -1.4950   54.8497 C.3     1  ZINC001060620810   -0.1200
     17 C17        -9.6623   -0.5605   53.7826 C.3     1  ZINC001060620810   -0.1300
     18 C18        -6.4342    1.7150   51.5514 C.3     1  ZINC001060620810   -0.1500
     19 C19        -6.7893    1.3782   50.1091 C.3     1  ZINC001060620810   -0.1500
     20 C20        -5.3925    1.1070   50.6253 C.3     1  ZINC001060620810   -0.1100
     21 H21        -5.1382    0.0585   50.7799 H       1  ZINC001060620810    0.1100
     22 C22        -4.2568    1.9589   50.0671 C.3     1  ZINC001060620810   -0.0900
     23 C23        -4.0718    3.2216   50.9089 C.3     1  ZINC001060620810   -0.1200
     24 C24        -5.4209    3.9422   51.0117 C.3     1  ZINC001060620810   -0.1200
     25 C25        -6.3141    3.1686   51.9815 C.3     1  ZINC001060620810   -0.0800
     26 H26        -8.3894    2.0954   53.2653 H       1  ZINC001060620810    0.4000
     27 H27        -7.7743   -0.3250   54.7931 H       1  ZINC001060620810    0.0900
     28 H28        -8.3839    1.7632   55.9835 H       1  ZINC001060620810    0.0700
     29 H29        -9.9572    1.7783   55.1512 H       1  ZINC001060620810    0.0600
     30 H30       -10.1601    0.7993   57.4204 H       1  ZINC001060620810    0.0700
     31 H31        -8.9424   -0.4288   56.9993 H       1  ZINC001060620810    0.0800
     32 H32       -11.2388   -1.3301   56.7490 H       1  ZINC001060620810    0.1000
     33 H33       -11.6862    1.0701   55.1131 H       1  ZINC001060620810    0.4100
     34 H34       -16.1650    0.6895   54.4017 H       1  ZINC001060620810    0.1800
     35 H35       -14.9658   -2.8064   56.5553 H       1  ZINC001060620810    0.1800
     36 H36       -11.0149   -2.1162   54.4080 H       1  ZINC001060620810    0.0800
     37 H37        -9.4416   -2.1313   55.2402 H       1  ZINC001060620810    0.0900
     38 H38       -10.4564    0.0758   53.3921 H       1  ZINC001060620810    0.0700
     39 H39        -9.2387   -1.1523   52.9711 H       1  ZINC001060620810    0.0800
     40 H40        -7.4316    0.5147   49.9367 H       1  ZINC001060620810    0.1000
     41 H41        -6.9201    2.2087   49.4153 H       1  ZINC001060620810    0.1100
     42 H42        -4.5097    2.2401   49.0448 H       1  ZINC001060620810    0.0700
     43 H43        -3.3291    1.3866   50.0654 H       1  ZINC001060620810    0.0700
     44 H44        -3.3427    3.8761   50.4314 H       1  ZINC001060620810    0.0700
     45 H45        -3.7255    2.9493   51.9059 H       1  ZINC001060620810    0.0700
     46 H46        -5.8923    3.9783   50.0295 H       1  ZINC001060620810    0.0700
     47 H47        -5.2673    4.9551   51.3842 H       1  ZINC001060620810    0.0700
     48 H48        -7.3052    3.6221   51.9975 H       1  ZINC001060620810    0.0700
     49 H49        -5.8820    3.2134   52.9812 H       1  ZINC001060620810    0.0700
@<TRIPOS>BOND
     1     1     2    2
     2     2     3   am
     3     2    18    1
     4     3     4    1
     5     3    26    1
     6     4    17    1
     7     4     5    1
     8     4    27    1
     9     5     6    1
    10     5    28    1
    11     5    29    1
    12     6     7    1
    13     6    30    1
    14     6    31    1
    15     7     8    1
    16     7    16    1
    17     7    32    1
    18     8     9    1
    19     8    33    1
    20     9    15   ar
    21     9    10   ar
    22    10    11   ar
    23    11    12   ar
    24    11    34    1
    25    12    13    1
    26    12    14   ar
    27    14    15   ar
    28    14    35    1
    29    16    17    1
    30    16    36    1
    31    16    37    1
    32    17    38    1
    33    17    39    1
    34    18    20    1
    35    18    25    1
    36    18    19    1
    37    19    20    1
    38    19    40    1
    39    19    41    1
    40    20    21    1
    41    20    22    1
    42    22    23    1
    43    22    42    1
    44    22    43    1
    45    23    24    1
    46    23    44    1
    47    23    45    1
    48    24    25    1
    49    24    46    1
    50    24    47    1
    51    25    48    1
    52    25    49    1
@<TRIPOS>SUBSTRUCTURE
     1 ZINC001060620810        1 TEMP              0 ****  ****    0 ROOT


##########                                Name:    ZINC001002468398
##########                DOCK_Rotatable_Bonds:                   7
##########                         Heavy_Atoms:                  24
##########                    Molecular_Weight:             341.358
##########                DOCK_Rotatable_Bonds:                   7
##########                       Formal_Charge:           0.0100001
##########                     HBond_Acceptors:                   8
##########                        HBond_Donors:                   0
##########                         Heavy_Atoms:                  24
##########                          Grid_Score:          -26.777096
##########                     Grid_vdw_energy:          -27.138397
##########                      Grid_es_energy:            0.361302
##########           Internal_energy_repulsive:           19.938780

@<TRIPOS>MOLECULE
ZINC001002468398
 45 47 1 0 0
SMALL
USER_CHARGES


@<TRIPOS>ATOM
      1 C1         -4.6047    3.9834   52.0500 C.3     1  ZINC001002468398   -0.1400
      2 C2         -5.9103    3.5226   52.7013 C.3     1  ZINC001002468398   -0.0500
      3 C3         -6.6262    2.5737   51.7750 C.2     1  ZINC001002468398    0.0500
      4 C4         -7.5327    1.6234   52.1315 C.2     1  ZINC001002468398   -0.0800
      5 C5         -8.0003    1.3277   53.4979 C.2     1  ZINC001002468398    0.6000
      6 O6         -7.1965    1.2047   54.4022 O.2     1  ZINC001002468398   -0.5300
      7 N7         -9.3184    1.1937   53.7450 N.am    1  ZINC001002468398   -0.6000
      8 C8        -10.2865    1.3419   52.6555 C.3     1  ZINC001002468398    0.0900
      9 C9         -9.7829    0.8999   55.1029 C.3     1  ZINC001002468398    0.1000
     10 C10        -9.6130   -0.5936   55.3880 C.3     1  ZINC001002468398    0.1300
     11 H11        -8.6085   -0.9122   55.1095 H       1  ZINC001002468398    0.0800
     12 C12       -10.6595   -1.4022   54.5926 C.3     1  ZINC001002468398   -0.1300
     13 C13       -11.0645   -2.5210   55.5884 C.3     1  ZINC001002468398   -0.1300
     14 C14       -11.0003   -1.7707   56.9421 C.3     1  ZINC001002468398    0.1000
     15 N15        -9.8440   -0.8597   56.8154 N.am    1  ZINC001002468398   -0.6100
     16 C16        -9.1246   -0.3568   57.8381 C.2     1  ZINC001002468398    0.5600
     17 O17        -8.1915    0.3855   57.6157 O.2     1  ZINC001002468398   -0.5100
     18 C18        -9.4796   -0.7164   59.2578 C.3     1  ZINC001002468398   -0.2000
     19 H19       -10.3181   -0.1673   59.6862 H       1  ZINC001002468398    0.1500
     20 C20        -8.3347   -1.1026   60.1962 C.3     1  ZINC001002468398   -0.1500
     21 C21        -9.2992   -2.1749   59.6834 C.3     1  ZINC001002468398    0.2300
     22 F22       -10.2225   -2.7015   60.5929 F       1  ZINC001002468398   -0.1500
     23 F23        -8.8166   -3.0726   58.7249 F       1  ZINC001002468398   -0.1400
     24 N24        -7.9268    0.9978   50.9891 N.2     1  ZINC001002468398   -0.4600
     25 C25        -7.2970    1.5345   49.9874 C.2     1  ZINC001002468398    0.1700
     26 O26        -6.4954    2.5088   50.4404 O.3     1  ZINC001002468398   -0.2000
     27 H27        -3.9708    3.1183   51.8553 H       1  ZINC001002468398    0.0600
     28 H28        -4.8263    4.4903   51.1108 H       1  ZINC001002468398    0.0600
     29 H29        -4.0869    4.6697   52.7200 H       1  ZINC001002468398    0.0700
     30 H30        -5.6887    3.0158   53.6404 H       1  ZINC001002468398    0.1200
     31 H31        -6.5442    4.3877   52.8960 H       1  ZINC001002468398    0.0900
     32 H32       -10.1220    0.5597   51.9144 H       1  ZINC001002468398    0.0700
     33 H33       -11.2977    1.2578   53.0541 H       1  ZINC001002468398    0.0700
     34 H34       -10.1605    2.3182   52.1876 H       1  ZINC001002468398    0.0700
     35 H35        -9.1974    1.4755   55.8198 H       1  ZINC001002468398    0.0900
     36 H36       -10.8352    1.1696   55.1933 H       1  ZINC001002468398    0.0900
     37 H37       -11.5185   -0.7798   54.3417 H       1  ZINC001002468398    0.1000
     38 H38       -10.2151   -1.8287   53.6933 H       1  ZINC001002468398    0.0800
     39 H39       -12.0747   -2.8769   55.3865 H       1  ZINC001002468398    0.0900
     40 H40       -10.3499   -3.3437   55.5635 H       1  ZINC001002468398    0.0800
     41 H41       -11.9163   -1.2026   57.1048 H       1  ZINC001002468398    0.0800
     42 H42       -10.8393   -2.4745   57.7588 H       1  ZINC001002468398    0.0800
     43 H43        -7.3244   -1.0965   59.7868 H       1  ZINC001002468398    0.1300
     44 H44        -8.4199   -0.8078   61.2422 H       1  ZINC001002468398    0.1400
     45 H45        -7.4054    1.2444   48.9528 H       1  ZINC001002468398    0.2600
@<TRIPOS>BOND
     1     1     2    1
     2     1    27    1
     3     1    28    1
     4     1    29    1
     5     2     3    1
     6     2    30    1
     7     2    31    1
     8     3    26    1
     9     3     4    2
    10     4     5    1
    11     4    24    1
    12     5     6    2
    13     5     7   am
    14     7     8    1
    15     7     9    1
    16     8    32    1
    17     8    33    1
    18     8    34    1
    19     9    10    1
    20     9    35    1
    21     9    36    1
    22    10    11    1
    23    10    15    1
    24    10    12    1
    25    12    13    1
    26    12    37    1
    27    12    38    1
    28    13    14    1
    29    13    39    1
    30    13    40    1
    31    14    15    1
    32    14    41    1
    33    14    42    1
    34    15    16   am
    35    16    17    2
    36    16    18    1
    37    18    19    1
    38    18    21    1
    39    18    20    1
    40    20    21    1
    41    20    43    1
    42    20    44    1
    43    21    22    1
    44    21    23    1
    45    24    25    2
    46    25    26    1
    47    25    45    1
@<TRIPOS>SUBSTRUCTURE
     1 ZINC001002468398        1 TEMP              0 ****  ****    0 ROOT


##########                                Name:    ZINC000437443367
##########                DOCK_Rotatable_Bonds:                   8
##########                         Heavy_Atoms:                  24
##########                    Molecular_Weight:             334.434
##########                DOCK_Rotatable_Bonds:                   8
##########                       Formal_Charge:          -0.0500003
##########                     HBond_Acceptors:                   5
##########                        HBond_Donors:                   1
##########                         Heavy_Atoms:                  24
##########                          Grid_Score:          -26.762709
##########                     Grid_vdw_energy:          -26.798519
##########                      Grid_es_energy:            0.035811
##########           Internal_energy_repulsive:           27.861814

@<TRIPOS>MOLECULE
ZINC000437443367
 51 52 1 0 0
SMALL
USER_CHARGES


@<TRIPOS>ATOM
      1 C1         -5.7471    3.0933   52.8270 C.3     1  ZINC000437443367   -0.1200
      2 C2         -6.5522    1.9271   52.3146 C.ar    1  ZINC000437443367   -0.1000
      3 C3         -7.1774    1.0763   53.2044 C.ar    1  ZINC000437443367   -0.1200
      4 C4         -7.9195    0.0012   52.7313 C.ar    1  ZINC000437443367    0.1400
      5 N5         -8.5538   -0.8613   53.6304 N.am    1  ZINC000437443367   -0.6400
      6 C6         -9.8644   -0.7053   53.9032 C.2     1  ZINC000437443367    0.5000
      7 O7        -10.4941    0.1839   53.3684 O.2     1  ZINC000437443367   -0.4800
      8 C8        -10.5420   -1.6267   54.8637 C.2     1  ZINC000437443367    0.5100
      9 O9        -10.8255   -2.7566   54.5233 O.2     1  ZINC000437443367   -0.5200
     10 N10       -10.8387   -1.2033   56.1084 N.am    1  ZINC000437443367   -0.5700
     11 C11       -10.4965    0.1606   56.5192 C.3     1  ZINC000437443367    0.0900
     12 C12        -8.9992    0.2409   56.8241 C.3     1  ZINC000437443367   -0.1200
     13 C13        -8.6859    1.5815   57.4916 C.3     1  ZINC000437443367   -0.0900
     14 C14        -7.1718    1.7282   57.6552 C.3     1  ZINC000437443367   -0.1400
     15 C15        -9.2176    2.7215   56.6206 C.3     1  ZINC000437443367   -0.1500
     16 C16       -11.5033   -2.1071   57.0504 C.3     1  ZINC000437443367    0.1300
     17 C17       -10.5395   -2.4777   58.1966 C.3     1  ZINC000437443367   -0.1300
     18 C18       -10.8910   -1.4783   59.3266 C.3     1  ZINC000437443367   -0.1300
     19 C19       -12.4320   -1.3665   59.2167 C.3     1  ZINC000437443367   -0.1200
     20 C20       -12.7066   -1.4006   57.6991 C.3     1  ZINC000437443367   -0.1400
     21 C21        -8.0306   -0.2151   51.3638 C.ar    1  ZINC000437443367   -0.1100
     22 C22        -7.4035    0.6385   50.4775 C.ar    1  ZINC000437443367   -0.1300
     23 C23        -6.6691    1.7126   50.9511 C.ar    1  ZINC000437443367    0.0800
     24 F24        -6.0565    2.5464   50.0824 F       1  ZINC000437443367   -0.1400
     25 H25        -6.3943    3.9643   52.9300 H       1  ZINC000437443367    0.0800
     26 H26        -5.3199    2.8414   53.7977 H       1  ZINC000437443367    0.0700
     27 H27        -4.9449    3.3179   52.1242 H       1  ZINC000437443367    0.0700
     28 H28        -7.0893    1.2462   54.2672 H       1  ZINC000437443367    0.1400
     29 H29        -8.0507   -1.5720   54.0577 H       1  ZINC000437443367    0.4200
     30 H30       -10.7412    0.8544   55.7151 H       1  ZINC000437443367    0.0900
     31 H31       -11.0636    0.4243   57.4119 H       1  ZINC000437443367    0.1000
     32 H32        -8.7207   -0.5725   57.4940 H       1  ZINC000437443367    0.0700
     33 H33        -8.4344    0.1565   55.8956 H       1  ZINC000437443367    0.0600
     34 H34        -9.1626    1.6198   58.4711 H       1  ZINC000437443367    0.0600
     35 H35        -6.6952    1.6898   56.6758 H       1  ZINC000437443367    0.0600
     36 H36        -6.9486    2.6832   58.1308 H       1  ZINC000437443367    0.0400
     37 H37        -6.7931    0.9160   58.2758 H       1  ZINC000437443367    0.0600
     38 H38       -10.2963    2.6170   56.5040 H       1  ZINC000437443367    0.0500
     39 H39        -8.9944    3.6765   57.0961 H       1  ZINC000437443367    0.0500
     40 H40        -8.7409    2.6831   55.6412 H       1  ZINC000437443367    0.0500
     41 H41       -11.8335   -3.0081   56.5334 H       1  ZINC000437443367    0.1000
     42 H42       -10.7139   -3.5021   58.5255 H       1  ZINC000437443367    0.0800
     43 H43        -9.5042   -2.3482   57.8813 H       1  ZINC000437443367    0.0700
     44 H44       -10.6010   -1.8768   60.2988 H       1  ZINC000437443367    0.0700
     45 H45       -10.4198   -0.5118   59.1478 H       1  ZINC000437443367    0.0700
     46 H46       -12.9120   -2.2114   59.7104 H       1  ZINC000437443367    0.0700
     47 H47       -12.7778   -0.4260   59.6459 H       1  ZINC000437443367    0.0700
     48 H48       -12.7961   -0.3852   57.3129 H       1  ZINC000437443367    0.0800
     49 H49       -13.6207   -1.9591   57.4975 H       1  ZINC000437443367    0.0700
     50 H50        -8.6067   -1.0503   50.9939 H       1  ZINC000437443367    0.1600
     51 H51        -7.4897    0.4707   49.4140 H       1  ZINC000437443367    0.1400
@<TRIPOS>BOND
     1     1     2    1
     2     1    25    1
     3     1    26    1
     4     1    27    1
     5     2    23   ar
     6     2     3   ar
     7     3     4   ar
     8     3    28    1
     9     4     5    1
    10     4    21   ar
    11     5     6   am
    12     5    29    1
    13     6     7    2
    14     6     8    1
    15     8     9    2
    16     8    10   am
    17    10    11    1
    18    10    16    1
    19    11    12    1
    20    11    30    1
    21    11    31    1
    22    12    13    1
    23    12    32    1
    24    12    33    1
    25    13    14    1
    26    13    15    1
    27    13    34    1
    28    14    35    1
    29    14    36    1
    30    14    37    1
    31    15    38    1
    32    15    39    1
    33    15    40    1
    34    16    20    1
    35    16    17    1
    36    16    41    1
    37    17    18    1
    38    17    42    1
    39    17    43    1
    40    18    19    1
    41    18    44    1
    42    18    45    1
    43    19    20    1
    44    19    46    1
    45    19    47    1
    46    20    48    1
    47    20    49    1
    48    21    22   ar
    49    21    50    1
    50    22    23   ar
    51    22    51    1
    52    23    24    1
@<TRIPOS>SUBSTRUCTURE
     1 ZINC000437443367        1 TEMP              0 ****  ****    0 ROOT


##########                                Name:    ZINC001179023006
##########                DOCK_Rotatable_Bonds:                   3
##########                         Heavy_Atoms:                  25
##########                    Molecular_Weight:             340.465
##########                DOCK_Rotatable_Bonds:                   3
##########                       Formal_Charge:          -0.0100005
##########                     HBond_Acceptors:                   4
##########                        HBond_Donors:                   1
##########                         Heavy_Atoms:                  25
##########                          Grid_Score:          -26.758429
##########                     Grid_vdw_energy:          -27.161087
##########                      Grid_es_energy:            0.402658
##########           Internal_energy_repulsive:           43.216976

@<TRIPOS>MOLECULE
ZINC001179023006
 53 56 1 0 0
SMALL
USER_CHARGES


@<TRIPOS>ATOM
      1 C1         -8.0755   -0.5197   51.5789 C.3     1  ZINC001179023006   -0.1500
      2 C2         -8.8050    0.7296   52.0765 C.3     1  ZINC001179023006   -0.1100
      3 C3         -7.7827    1.8169   52.4133 C.3     1  ZINC001179023006   -0.1100
      4 C4         -8.2305    2.7127   53.5393 C.2     1  ZINC001179023006    0.5400
      5 O5         -8.5476    3.8609   53.3114 O.2     1  ZINC001179023006   -0.5400
      6 N6         -8.2790    2.2378   54.7998 N.am    1  ZINC001179023006   -0.5900
      7 C7         -7.9042    0.8476   55.0916 C.3     1  ZINC001179023006    0.1000
      8 C8         -9.0395    0.1759   55.8606 C.3     1  ZINC001179023006   -0.1200
      9 C9         -9.3655    1.0055   57.1111 C.3     1  ZINC001179023006   -0.0500
     10 C10        -9.8436    2.3953   56.6654 C.3     1  ZINC001179023006   -0.1100
     11 C11        -8.7133    3.0982   55.9086 C.3     1  ZINC001179023006    0.0900
     12 C12       -10.4828    0.3219   57.8833 C.3     1  ZINC001179023006   -0.0800
     13 C13       -10.1220   -1.0854   58.2489 C.ar    1  ZINC001179023006   -0.0700
     14 C14       -10.7453   -2.1289   57.5719 C.ar    1  ZINC001179023006   -0.1100
     15 C15       -10.3890   -3.4356   57.8418 C.ar    1  ZINC001179023006   -0.1100
     16 C16        -9.4159   -3.7118   58.7838 C.ar    1  ZINC001179023006   -0.1200
     17 C17        -8.8080   -2.6726   59.4656 C.ar    1  ZINC001179023006   -0.1000
     18 C18        -9.1800   -1.3682   59.1930 C.ar    1  ZINC001179023006   -0.1100
     19 C19        -8.5414   -0.2338   59.9531 C.3     1  ZINC001179023006    0.1400
     20 N20        -7.7744    0.6272   59.0804 N.am    1  ZINC001179023006   -0.7000
     21 C21        -8.1268    1.1555   57.9367 C.2     1  ZINC001179023006    0.5200
     22 O22        -7.2991    1.9018   57.4586 O.2     1  ZINC001179023006   -0.5500
     23 C23        -7.2708    2.5838   51.1825 C.3     1  ZINC001179023006   -0.1200
     24 C24        -5.8779    2.5436   51.8367 C.3     1  ZINC001179023006   -0.1400
     25 C25        -6.3500    1.2843   52.5824 C.3     1  ZINC001179023006   -0.1300
     26 H26        -8.8053   -1.2808   51.3027 H       1  ZINC001179023006    0.0600
     27 H27        -7.4698   -0.2646   50.7093 H       1  ZINC001179023006    0.0500
     28 H28        -7.4316   -0.9039   52.3701 H       1  ZINC001179023006    0.0600
     29 H29        -9.3805    0.4830   52.9688 H       1  ZINC001179023006    0.0700
     30 H30        -9.4777    1.0915   51.2989 H       1  ZINC001179023006    0.0700
     31 H31        -7.7306    0.3124   54.1581 H       1  ZINC001179023006    0.0900
     32 H32        -6.9980    0.8330   55.6971 H       1  ZINC001179023006    0.0800
     33 H33        -8.7354   -0.8275   56.1584 H       1  ZINC001179023006    0.0800
     34 H34        -9.9221    0.1150   55.2238 H       1  ZINC001179023006    0.0800
     35 H35       -10.1169    2.9844   57.5409 H       1  ZINC001179023006    0.0800
     36 H36       -10.7097    2.2911   56.0119 H       1  ZINC001179023006    0.0800
     37 H37        -7.8760    3.2746   56.5838 H       1  ZINC001179023006    0.1200
     38 H38        -9.0735    4.0484   55.5143 H       1  ZINC001179023006    0.0800
     39 H39       -10.6822    0.8859   58.7945 H       1  ZINC001179023006    0.0800
     40 H40       -11.3837    0.3100   57.2697 H       1  ZINC001179023006    0.0900
     41 H41       -11.5066   -1.9172   56.8358 H       1  ZINC001179023006    0.1200
     42 H42       -10.8729   -4.2447   57.3150 H       1  ZINC001179023006    0.1200
     43 H43        -9.1314   -4.7338   58.9863 H       1  ZINC001179023006    0.1300
     44 H44        -8.0487   -2.8783   60.2055 H       1  ZINC001179023006    0.1300
     45 H45        -7.8816   -0.6444   60.7173 H       1  ZINC001179023006    0.0900
     46 H46        -9.3216    0.3540   60.4369 H       1  ZINC001179023006    0.0800
     47 H47        -6.8783    0.8415   59.3836 H       1  ZINC001179023006    0.4000
     48 H48        -7.3344    2.0140   50.2555 H       1  ZINC001179023006    0.0900
     49 H49        -7.6829    3.5888   51.0918 H       1  ZINC001179023006    0.0800
     50 H50        -5.6805    3.3914   52.4929 H       1  ZINC001179023006    0.0800
     51 H51        -5.0674    2.3559   51.1325 H       1  ZINC001179023006    0.0700
     52 H52        -6.0196    1.2419   53.6203 H       1  ZINC001179023006    0.0700
     53 H53        -6.1613    0.3585   52.0389 H       1  ZINC001179023006    0.0900
@<TRIPOS>BOND
     1     1     2    1
     2     1    26    1
     3     1    27    1
     4     1    28    1
     5     2     3    1
     6     2    29    1
     7     2    30    1
     8     3    25    1
     9     3     4    1
    10     3    23    1
    11     4     5    2
    12     4     6   am
    13     6    11    1
    14     6     7    1
    15     7     8    1
    16     7    31    1
    17     7    32    1
    18     8     9    1
    19     8    33    1
    20     8    34    1
    21     9    21    1
    22     9    10    1
    23     9    12    1
    24    10    11    1
    25    10    35    1
    26    10    36    1
    27    11    37    1
    28    11    38    1
    29    12    13    1
    30    12    39    1
    31    12    40    1
    32    13    18   ar
    33    13    14   ar
    34    14    15   ar
    35    14    41    1
    36    15    16   ar
    37    15    42    1
    38    16    17   ar
    39    16    43    1
    40    17    18   ar
    41    17    44    1
    42    18    19    1
    43    19    20    1
    44    19    45    1
    45    19    46    1
    46    20    21   am
    47    20    47    1
    48    21    22    2
    49    23    24    1
    50    23    48    1
    51    23    49    1
    52    24    25    1
    53    24    50    1
    54    24    51    1
    55    25    52    1
    56    25    53    1
@<TRIPOS>SUBSTRUCTURE
     1 ZINC001179023006        1 TEMP              0 ****  ****    0 ROOT


##########                                Name:    ZINC000518234532
##########                DOCK_Rotatable_Bonds:                   5
##########                         Heavy_Atoms:                  25
##########                    Molecular_Weight:             408.267
##########                DOCK_Rotatable_Bonds:                   5
##########                       Formal_Charge:         -0.00999981
##########                     HBond_Acceptors:                   5
##########                        HBond_Donors:                   1
##########                         Heavy_Atoms:                  25
##########                          Grid_Score:          -26.748590
##########                     Grid_vdw_energy:          -26.251616
##########                      Grid_es_energy:           -0.496974
##########           Internal_energy_repulsive:           13.714406

@<TRIPOS>MOLECULE
ZINC000518234532
 44 46 1 0 0
SMALL
USER_CHARGES


@<TRIPOS>ATOM
      1 C1         -8.7969   -2.0013   59.2098 C.3     1  ZINC000518234532   -0.1600
      2 C2         -9.7963   -0.9821   58.6588 C.3     1  ZINC000518234532    0.1800
      3 H3         -9.7568   -0.0733   59.2591 H       1  ZINC000518234532    0.1100
      4 N4         -9.4549   -0.6652   57.2698 N.am    1  ZINC000518234532   -0.7300
      5 C5         -8.6591    0.3873   56.9949 C.2     1  ZINC000518234532    0.5200
      6 O6         -8.2245    1.0709   57.8974 O.2     1  ZINC000518234532   -0.5200
      7 C7         -8.3094    0.7144   55.5660 C.3     1  ZINC000518234532   -0.0700
      8 H8         -7.5913   -0.0152   55.1915 H       1  ZINC000518234532    0.1100
      9 C9         -7.6963    2.1145   55.4987 C.3     1  ZINC000518234532   -0.1400
     10 C10        -9.5565    0.6710   54.7211 C.ar    1  ZINC000518234532   -0.1000
     11 C11       -10.6339    1.4765   55.0371 C.ar    1  ZINC000518234532   -0.0600
     12 C12       -11.7782    1.4368   54.2621 C.ar    1  ZINC000518234532   -0.1300
     13 C13       -11.8462    0.5913   53.1708 C.ar    1  ZINC000518234532   -0.0900
     14 C14       -10.7699   -0.2158   52.8530 C.ar    1  ZINC000518234532   -0.1600
     15 C15        -9.6212   -0.1720   53.6244 C.ar    1  ZINC000518234532    0.1000
     16 F16        -8.5686   -0.9603   53.3147 F       1  ZINC000518234532   -0.1400
     17 C17       -11.1865   -1.5611   58.7147 C.ar    1  ZINC000518234532   -0.0600
     18 C18       -11.6020   -2.4530   57.7444 C.ar    1  ZINC000518234532   -0.1100
     19 C19       -12.8806   -2.9882   57.7936 C.ar    1  ZINC000518234532    0.0800
     20 C20       -13.7422   -2.6270   58.8225 C.ar    1  ZINC000518234532    0.0600
     21 C21       -13.3202   -1.7304   59.7930 C.ar    1  ZINC000518234532   -0.0800
     22 C22       -12.0429   -1.2034   59.7405 C.ar    1  ZINC000518234532   -0.0800
     23 Br23      -11.4703    0.0179   61.0658 Br      1  ZINC000518234532   -0.0300
     24 O24       -14.9982   -3.1464   58.8938 O.3     1  ZINC000518234532   -0.3000
     25 C25       -15.5134   -3.7508   57.7026 C.3     1  ZINC000518234532    0.0200
     26 C26       -14.4269   -4.6637   57.1182 C.3     1  ZINC000518234532    0.0200
     27 O27       -13.2765   -3.8624   56.8281 O.3     1  ZINC000518234532   -0.3000
     28 H28        -7.7914   -1.5825   59.1693 H       1  ZINC000518234532    0.0700
     29 H29        -9.0510   -2.2371   60.2431 H       1  ZINC000518234532    0.0700
     30 H30        -8.8365   -2.9101   58.6094 H       1  ZINC000518234532    0.0600
     31 H31        -9.8015   -1.2127   56.5480 H       1  ZINC000518234532    0.4000
     32 H32        -6.7942    2.1460   56.1098 H       1  ZINC000518234532    0.0700
     33 H33        -7.4434    2.3512   54.4652 H       1  ZINC000518234532    0.0700
     34 H34        -8.4144    2.8441   55.8732 H       1  ZINC000518234532    0.0700
     35 H35       -10.5822    2.1370   55.8900 H       1  ZINC000518234532    0.1300
     36 H36       -12.6197    2.0667   54.5099 H       1  ZINC000518234532    0.1300
     37 H37       -12.7407    0.5608   52.5663 H       1  ZINC000518234532    0.1300
     38 H38       -10.8235   -0.8768   52.0006 H       1  ZINC000518234532    0.1400
     39 H39       -10.9303   -2.7335   56.9464 H       1  ZINC000518234532    0.1400
     40 H40       -13.9885   -1.4464   60.5923 H       1  ZINC000518234532    0.1500
     41 H41       -16.3986   -4.3399   57.9425 H       1  ZINC000518234532    0.1300
     42 H42       -15.7713   -2.9769   56.9797 H       1  ZINC000518234532    0.0800
     43 H43       -14.1648   -5.4340   57.8435 H       1  ZINC000518234532    0.0800
     44 H44       -14.7913   -5.1290   56.2024 H       1  ZINC000518234532    0.1300
@<TRIPOS>BOND
     1     1     2    1
     2     1    28    1
     3     1    29    1
     4     1    30    1
     5     2     3    1
     6     2     4    1
     7     2    17    1
     8     4     5   am
     9     4    31    1
    10     5     6    2
    11     5     7    1
    12     7     8    1
    13     7     9    1
    14     7    10    1
    15     9    32    1
    16     9    33    1
    17     9    34    1
    18    10    15   ar
    19    10    11   ar
    20    11    12   ar
    21    11    35    1
    22    12    13   ar
    23    12    36    1
    24    13    14   ar
    25    13    37    1
    26    14    15   ar
    27    14    38    1
    28    15    16    1
    29    17    22   ar
    30    17    18   ar
    31    18    19   ar
    32    18    39    1
    33    19    27    1
    34    19    20   ar
    35    20    21   ar
    36    20    24    1
    37    21    22   ar
    38    21    40    1
    39    22    23    1
    40    24    25    1
    41    25    26    1
    42    25    41    1
    43    25    42    1
    44    26    27    1
    45    26    43    1
    46    26    44    1
@<TRIPOS>SUBSTRUCTURE
     1 ZINC000518234532        1 TEMP              0 ****  ****    0 ROOT


##########                                Name:    ZINC000521663393
##########                DOCK_Rotatable_Bonds:                   5
##########                         Heavy_Atoms:                  27
##########                    Molecular_Weight:              386.49
##########                DOCK_Rotatable_Bonds:                   5
##########                       Formal_Charge:               -0.02
##########                     HBond_Acceptors:                   6
##########                        HBond_Donors:                   1
##########                         Heavy_Atoms:                  27
##########                          Grid_Score:          -26.736174
##########                     Grid_vdw_energy:          -27.374298
##########                      Grid_es_energy:            0.638125
##########           Internal_energy_repulsive:           28.633602

@<TRIPOS>MOLECULE
ZINC000521663393
 50 53 1 0 0
SMALL
USER_CHARGES


@<TRIPOS>ATOM
      1 C1         -8.1487   -1.9263   59.4381 C.3     1  ZINC000521663393   -0.1500
      2 C2         -8.7079   -0.5734   59.8832 C.3     1  ZINC000521663393    0.0800
      3 H3         -8.6815    0.1427   59.0619 H       1  ZINC000521663393    0.0900
      4 O4         -7.9839   -0.0720   61.0196 O.3     1  ZINC000521663393   -0.2900
      5 C5         -8.8364    0.6184   61.8256 C.ar    1  ZINC000521663393    0.1400
      6 C6         -8.5640    1.5574   62.8165 C.ar    1  ZINC000521663393   -0.1800
      7 C7         -9.5968    2.1353   63.5299 C.ar    1  ZINC000521663393    0.1400
      8 F8         -9.3240    3.0453   64.4905 F       1  ZINC000521663393   -0.1300
      9 C9        -10.9102    1.7860   63.2645 C.ar    1  ZINC000521663393   -0.1800
     10 C10       -11.1874    0.8568   62.2776 C.ar    1  ZINC000521663393   -0.0200
     11 C11       -10.1591    0.2827   61.5638 C.ar    1  ZINC000521663393   -0.2000
     12 C12       -10.1470   -0.7281   60.4294 C.3     1  ZINC000521663393    0.1700
     13 H13       -10.3151   -1.7373   60.8052 H       1  ZINC000521663393    0.1200
     14 N14       -11.1382   -0.3807   59.4081 N.am    1  ZINC000521663393   -0.7200
     15 C15       -11.7725   -1.3547   58.7258 C.2     1  ZINC000521663393    0.5300
     16 O16       -11.5240   -2.5187   58.9583 O.2     1  ZINC000521663393   -0.5000
     17 C17       -12.7908   -0.9972   57.6739 C.3     1  ZINC000521663393    0.1200
     18 H18       -13.1885   -0.0027   57.8763 H       1  ZINC000521663393    0.0700
     19 C19       -12.1364   -1.0099   56.3164 C.ar    1  ZINC000521663393   -0.0900
     20 C20       -12.7194   -0.3326   55.2617 C.ar    1  ZINC000521663393   -0.0900
     21 C21       -12.1192   -0.3443   54.0166 C.ar    1  ZINC000521663393   -0.1200
     22 C22       -10.9357   -1.0328   53.8262 C.ar    1  ZINC000521663393   -0.1100
     23 C23       -10.3522   -1.7093   54.8811 C.ar    1  ZINC000521663393   -0.1200
     24 C24       -10.9503   -1.6941   56.1273 C.ar    1  ZINC000521663393   -0.1100
     25 N25       -13.8853   -1.9767   57.6990 N.3     1  ZINC000521663393   -0.5300
     26 C26       -14.4575   -2.0903   59.0424 C.3     1  ZINC000521663393    0.0500
     27 C27       -15.8380   -2.7514   58.9662 C.3     1  ZINC000521663393   -0.0700
     28 S28       -15.6381   -4.4293   58.2931 S.3     1  ZINC000521663393   -0.2700
     29 C29       -14.6655   -4.1169   56.7880 C.3     1  ZINC000521663393   -0.0700
     30 C30       -13.4465   -3.2677   57.1642 C.3     1  ZINC000521663393    0.0600
     31 H31        -8.7548   -2.3191   58.6218 H       1  ZINC000521663393    0.0800
     32 H32        -7.1204   -1.8006   59.0993 H       1  ZINC000521663393    0.0800
     33 H33        -8.1726   -2.6228   60.2762 H       1  ZINC000521663393    0.0700
     34 H34        -7.5421    1.8349   63.0287 H       1  ZINC000521663393    0.1400
     35 H35       -11.7152    2.2370   63.8259 H       1  ZINC000521663393    0.1400
     36 H36       -12.2103    0.5817   62.0670 H       1  ZINC000521663393    0.1300
     37 H37       -11.3379    0.5502   59.2229 H       1  ZINC000521663393    0.4000
     38 H38       -13.6440    0.2053   55.4105 H       1  ZINC000521663393    0.1300
     39 H39       -12.5750    0.1842   53.1924 H       1  ZINC000521663393    0.1300
     40 H40       -10.4671   -1.0425   52.8532 H       1  ZINC000521663393    0.1200
     41 H41        -9.4278   -2.2476   54.7323 H       1  ZINC000521663393    0.1300
     42 H42       -10.4944   -2.2227   56.9515 H       1  ZINC000521663393    0.1200
     43 H43       -13.7999   -2.6957   59.6662 H       1  ZINC000521663393    0.0500
     44 H44       -14.5555   -1.0966   59.4796 H       1  ZINC000521663393    0.1000
     45 H45       -16.2732   -2.8066   59.9639 H       1  ZINC000521663393    0.1100
     46 H46       -16.4871   -2.1693   58.3120 H       1  ZINC000521663393    0.0900
     47 H47       -14.3347   -5.0643   56.3625 H       1  ZINC000521663393    0.1100
     48 H48       -15.2762   -3.5796   56.0624 H       1  ZINC000521663393    0.1000
     49 H49       -12.8326   -3.1032   56.2787 H       1  ZINC000521663393    0.0800
     50 H50       -12.8592   -3.7914   57.9184 H       1  ZINC000521663393    0.0500
@<TRIPOS>BOND
     1     1     2    1
     2     1    31    1
     3     1    32    1
     4     1    33    1
     5     2     3    1
     6     2    12    1
     7     2     4    1
     8     4     5    1
     9     5    11   ar
    10     5     6   ar
    11     6     7   ar
    12     6    34    1
    13     7     8    1
    14     7     9   ar
    15     9    10   ar
    16     9    35    1
    17    10    11   ar
    18    10    36    1
    19    11    12    1
    20    12    13    1
    21    12    14    1
    22    14    15   am
    23    14    37    1
    24    15    16    2
    25    15    17    1
    26    17    18    1
    27    17    19    1
    28    17    25    1
    29    19    24   ar
    30    19    20   ar
    31    20    21   ar
    32    20    38    1
    33    21    22   ar
    34    21    39    1
    35    22    23   ar
    36    22    40    1
    37    23    24   ar
    38    23    41    1
    39    24    42    1
    40    25    30    1
    41    25    26    1
    42    26    27    1
    43    26    43    1
    44    26    44    1
    45    27    28    1
    46    27    45    1
    47    27    46    1
    48    28    29    1
    49    29    30    1
    50    29    47    1
    51    29    48    1
    52    30    49    1
    53    30    50    1
@<TRIPOS>SUBSTRUCTURE
     1 ZINC000521663393        1 TEMP              0 ****  ****    0 ROOT


##########                                Name:    ZINC000507831344
##########                DOCK_Rotatable_Bonds:                   6
##########                         Heavy_Atoms:                  31
##########                    Molecular_Weight:              422.53
##########                DOCK_Rotatable_Bonds:                   6
##########                       Formal_Charge:          -0.0200002
##########                     HBond_Acceptors:                   8
##########                        HBond_Donors:                   2
##########                         Heavy_Atoms:                  31
##########                          Grid_Score:          -26.728148
##########                     Grid_vdw_energy:          -25.964991
##########                      Grid_es_energy:           -0.763157
##########           Internal_energy_repulsive:           25.189371

@<TRIPOS>MOLECULE
ZINC000507831344
 61 64 1 0 0
SMALL
USER_CHARGES


@<TRIPOS>ATOM
      1 C1         -6.7167    3.2832   54.7196 C.3     1  ZINC000507831344   -0.1000
      2 C2         -7.8164    2.2698   54.5331 C.ar    1  ZINC000507831344   -0.0800
      3 C3         -8.5969    1.8787   55.6052 C.ar    1  ZINC000507831344   -0.0800
      4 C4         -9.6030    0.9388   55.3863 C.ar    1  ZINC000507831344    0.0900
      5 N5        -10.4189    0.5135   56.4439 N.am    1  ZINC000507831344   -0.6700
      6 C6         -9.8656   -0.0375   57.5424 C.2     1  ZINC000507831344    0.5100
      7 O7         -8.6616   -0.1653   57.6159 O.2     1  ZINC000507831344   -0.5100
      8 C8        -10.7427   -0.4947   58.6794 C.3     1  ZINC000507831344   -0.1400
      9 C9        -12.1388    0.1110   58.5220 C.3     1  ZINC000507831344   -0.0500
     10 C10       -12.8024    0.2012   59.8721 C.2     1  ZINC000507831344   -0.2200
     11 C11       -12.6122    1.2935   60.6582 C.2     1  ZINC000507831344    0.2100
     12 C12       -11.7364    2.4269   60.1898 C.3     1  ZINC000507831344   -0.1400
     13 N13       -13.2221    1.3516   61.8721 N.pl3   1  ZINC000507831344   -0.3000
     14 N14       -13.2165    2.3227   62.8806 N.am    1  ZINC000507831344   -0.5100
     15 C15       -13.9917    1.8903   63.8934 C.2     1  ZINC000507831344    0.5500
     16 O16       -14.2085    2.4906   64.9336 O.2     1  ZINC000507831344   -0.5400
     17 C17       -14.5045    0.6400   63.5511 C.2     1  ZINC000507831344   -0.3500
     18 C18       -14.0177    0.3135   62.2873 C.2     1  ZINC000507831344    0.3500
     19 N19       -14.1992   -0.7577   61.5062 N.2     1  ZINC000507831344   -0.4800
     20 C20       -13.6245   -0.8365   60.3253 C.2     1  ZINC000507831344    0.2500
     21 C21       -13.8438   -2.0525   59.4627 C.3     1  ZINC000507831344   -0.1200
     22 C22        -9.7873    0.4305   54.1098 C.ar    1  ZINC000507831344    0.0800
     23 N23        -9.0236    0.8262   53.1091 N.ar    1  ZINC000507831344   -0.4900
     24 C24        -8.0627    1.7204   53.2790 C.ar    1  ZINC000507831344    0.2800
     25 N25        -7.2828    2.1076   52.1928 N.3     1  ZINC000507831344   -0.4800
     26 C26        -6.2919    1.0754   51.8619 C.3     1  ZINC000507831344    0.0600
     27 C27        -5.3614    1.5935   50.7630 C.3     1  ZINC000507831344   -0.1200
     28 C28        -6.1896    1.9480   49.5248 C.3     1  ZINC000507831344   -0.1200
     29 C29        -7.2454    2.9888   49.9075 C.3     1  ZINC000507831344   -0.1100
     30 C30        -8.1213    2.4304   51.0313 C.3     1  ZINC000507831344    0.0900
     31 H31        -8.6249    1.5279   50.6848 H       1  ZINC000507831344    0.0600
     32 C32        -9.1652    3.4751   51.4310 C.3     1  ZINC000507831344   -0.1400
     33 H33        -7.0933    4.2768   54.4763 H       1  ZINC000507831344    0.0700
     34 H34        -6.3789    3.2663   55.7557 H       1  ZINC000507831344    0.0600
     35 H35        -5.8827    3.0396   54.0613 H       1  ZINC000507831344    0.0800
     36 H36        -8.4307    2.2912   56.5893 H       1  ZINC000507831344    0.1500
     37 H37       -11.3818    0.6156   56.3851 H       1  ZINC000507831344    0.4100
     38 H38       -10.8150   -1.5822   58.6677 H       1  ZINC000507831344    0.1000
     39 H39       -10.3100   -0.1695   59.6255 H       1  ZINC000507831344    0.1000
     40 H40       -12.0556    1.1086   58.0908 H       1  ZINC000507831344    0.0900
     41 H41       -12.7368   -0.5203   57.8647 H       1  ZINC000507831344    0.1000
     42 H42       -12.3411    3.1524   59.6457 H       1  ZINC000507831344    0.1000
     43 H43       -11.2764    2.9106   61.0516 H       1  ZINC000507831344    0.0800
     44 H44       -10.9582    2.0374   59.5334 H       1  ZINC000507831344    0.1100
     45 H45       -12.7351    3.1644   62.8545 H       1  ZINC000507831344    0.4400
     46 H46       -15.1610    0.0333   64.1571 H       1  ZINC000507831344    0.1700
     47 H47       -14.5006   -2.7517   59.9806 H       1  ZINC000507831344    0.0900
     48 H48       -14.3032   -1.7520   58.5210 H       1  ZINC000507831344    0.1000
     49 H49       -12.8863   -2.5336   59.2627 H       1  ZINC000507831344    0.0900
     50 H50       -10.5644   -0.2981   53.9325 H       1  ZINC000507831344    0.1600
     51 H51        -5.7071    0.8356   52.7498 H       1  ZINC000507831344    0.0700
     52 H52        -6.8041    0.1794   51.5117 H       1  ZINC000507831344    0.0500
     53 H53        -4.8385    2.4818   51.1176 H       1  ZINC000507831344    0.0700
     54 H54        -4.6358    0.8215   50.5067 H       1  ZINC000507831344    0.0700
     55 H55        -5.5363    2.3580   48.7548 H       1  ZINC000507831344    0.0700
     56 H56        -6.6817    1.0518   49.1470 H       1  ZINC000507831344    0.0600
     57 H57        -6.7522    3.8991   50.2486 H       1  ZINC000507831344    0.0700
     58 H58        -7.8659    3.2138   49.0401 H       1  ZINC000507831344    0.0700
     59 H59        -9.8426    3.6501   50.5952 H       1  ZINC000507831344    0.0600
     60 H60        -9.7321    3.1126   52.2885 H       1  ZINC000507831344    0.0500
     61 H61        -8.6644    4.4068   51.6942 H       1  ZINC000507831344    0.0600
@<TRIPOS>BOND
     1     1     2    1
     2     1    33    1
     3     1    34    1
     4     1    35    1
     5     2    24   ar
     6     2     3   ar
     7     3     4   ar
     8     3    36    1
     9     4     5    1
    10     4    22   ar
    11     5     6   am
    12     5    37    1
    13     6     7    2
    14     6     8    1
    15     8     9    1
    16     8    38    1
    17     8    39    1
    18     9    10    1
    19     9    40    1
    20     9    41    1
    21    10    20    1
    22    10    11    2
    23    11    12    1
    24    11    13    1
    25    12    42    1
    26    12    43    1
    27    12    44    1
    28    13    18    1
    29    13    14    1
    30    14    15   am
    31    14    45    1
    32    15    16    2
    33    15    17    1
    34    17    18    2
    35    17    46    1
    36    18    19    1
    37    19    20    2
    38    20    21    1
    39    21    47    1
    40    21    48    1
    41    21    49    1
    42    22    23   ar
    43    22    50    1
    44    23    24   ar
    45    24    25    1
    46    25    30    1
    47    25    26    1
    48    26    27    1
    49    26    51    1
    50    26    52    1
    51    27    28    1
    52    27    53    1
    53    27    54    1
    54    28    29    1
    55    28    55    1
    56    28    56    1
    57    29    30    1
    58    29    57    1
    59    29    58    1
    60    30    31    1
    61    30    32    1
    62    32    59    1
    63    32    60    1
    64    32    61    1
@<TRIPOS>SUBSTRUCTURE
     1 ZINC000507831344        1 TEMP              0 ****  ****    0 ROOT


##########                                Name:    ZINC000342525234
##########                DOCK_Rotatable_Bonds:                   6
##########                         Heavy_Atoms:                  25
##########                    Molecular_Weight:             333.349
##########                DOCK_Rotatable_Bonds:                   6
##########                       Formal_Charge:           0.0500003
##########                     HBond_Acceptors:                   7
##########                        HBond_Donors:                   2
##########                         Heavy_Atoms:                  25
##########                          Grid_Score:          -26.723028
##########                     Grid_vdw_energy:          -26.434725
##########                      Grid_es_energy:           -0.288303
##########           Internal_energy_repulsive:            4.477701

@<TRIPOS>MOLECULE
ZINC000342525234
 40 43 1 0 0
SMALL
USER_CHARGES


@<TRIPOS>ATOM
      1 O1         -7.8013   -0.0025   55.1898 O.2     1  <0>        -0.5100
      2 C2         -8.6984   -0.2632   54.4131 C.2     1  <0>         0.6000
      3 N3         -8.4917   -0.1592   53.0853 N.am    1  <0>        -0.7100
      4 C4         -7.1871    0.2741   52.5788 C.3     1  <0>         0.1200
      5 C5         -7.2398    1.7662   52.2443 C.3     1  <0>        -0.0900
      6 C6         -5.8462    2.2684   51.9672 C.ar    1  <0>        -0.0400
      7 C7         -5.1702    2.9137   52.9503 C.ar    1  <0>        -0.1000
      8 C8         -3.8642    3.3884   52.7023 C.ar    1  <0>         0.1100
      9 N9         -2.9604    4.0355   53.4153 N.2     1  <0>        -0.3100
     10 N10        -1.8229    4.2437   52.6270 N.pl3   1  <0>        -0.4200
     11 C11        -2.0109    3.7235   51.4066 C.2     1  <0>         0.0900
     12 C12        -3.2751    3.1650   51.3727 C.ar    1  <0>        -0.2100
     13 C13        -4.0367    2.4857   50.3979 C.ar    1  <0>        -0.0400
     14 C14        -5.2842    2.0515   50.7070 C.ar    1  <0>        -0.1500
     15 C15       -10.0194   -0.7020   54.9258 C.2     1  <0>        -0.0200
     16 N16       -11.1162   -0.8716   54.2288 N.2     1  <0>        -0.3200
     17 O17       -12.0365   -1.2357   54.9228 O.3     1  <0>         0.1400
     18 C18       -11.6700   -1.3619   56.2103 C.2     1  <0>         0.0100
     19 C19       -12.5277   -1.7847   57.3386 C.ar    1  <0>         0.0200
     20 C20       -12.0054   -1.9117   58.6309 C.ar    1  <0>        -0.1400
     21 C21       -12.8415   -2.3085   59.6540 C.ar    1  <0>         0.1100
     22 N22       -14.1151   -2.5668   59.4267 N.ar    1  <0>        -0.4800
     23 C23       -14.6475   -2.4598   58.2244 C.ar    1  <0>         0.1100
     24 C24       -13.8854   -2.0635   57.1448 C.ar    1  <0>        -0.1500
     25 C25       -10.3461   -1.0279   56.2685 C.2     1  <0>        -0.1500
     26 H26        -9.2067   -0.3711   52.4651 H       1  <0>         0.4100
     27 H27        -6.4258    0.0988   53.3389 H       1  <0>         0.0800
     28 H28        -6.9403   -0.2912   51.6802 H       1  <0>         0.0800
     29 H29        -7.8630    1.9192   51.3633 H       1  <0>         0.0900
     30 H30        -7.6621    2.3129   53.0876 H       1  <0>         0.0800
     31 H31        -5.6283    3.0636   53.9166 H       1  <0>         0.1300
     32 H32        -1.0176    4.6976   52.9205 H       1  <0>         0.4500
     33 H33        -1.3007    3.7383   50.5931 H       1  <0>         0.1900
     34 H34        -3.6276    2.3087   49.4142 H       1  <0>         0.1300
     35 H35        -5.8613    1.5321   49.9563 H       1  <0>         0.1200
     36 H36       -10.9637   -1.7025   58.8241 H       1  <0>         0.1400
     37 H37       -12.4480   -2.4093   60.6547 H       1  <0>         0.1700
     38 H38       -15.6951   -2.6814   58.0842 H       1  <0>         0.1700
     39 H39       -14.3280   -1.9780   56.1633 H       1  <0>         0.1500
     40 H40        -9.7008   -1.0097   57.1344 H       1  <0>         0.1900
@<TRIPOS>BOND
     1     1     2    2
     2     2     3   am
     3     2    15    1
     4     3     4    1
     5     3    26    1
     6     4     5    1
     7     4    27    1
     8     4    28    1
     9     5     6    1
    10     5    29    1
    11     5    30    1
    12     6    14   ar
    13     6     7   ar
    14     7     8   ar
    15     7    31    1
    16     8    12   ar
    17     8     9    2
    18     9    10    1
    19    10    11    1
    20    10    32    1
    21    11    12    2
    22    11    33    1
    23    12    13   ar
    24    13    14   ar
    25    13    34    1
    26    14    35    1
    27    15    25    1
    28    15    16    2
    29    16    17    1
    30    17    18    1
    31    18    19    1
    32    18    25    2
    33    19    24   ar
    34    19    20   ar
    35    20    21   ar
    36    20    36    1
    37    21    22   ar
    38    21    37    1
    39    22    23   ar
    40    23    24   ar
    41    23    38    1
    42    24    39    1
    43    25    40    1
@<TRIPOS>SUBSTRUCTURE
     1 <0>         1 TEMP              0 ****  ****    0 ROOT


##########                                Name:    ZINC000543429378
##########                DOCK_Rotatable_Bonds:                   6
##########                         Heavy_Atoms:                  29
##########                    Molecular_Weight:             406.408
##########                DOCK_Rotatable_Bonds:                   6
##########                       Formal_Charge:           0.0100003
##########                     HBond_Acceptors:                   9
##########                        HBond_Donors:                   1
##########                         Heavy_Atoms:                  29
##########                          Grid_Score:          -26.702806
##########                     Grid_vdw_energy:          -26.938715
##########                      Grid_es_energy:            0.235909
##########           Internal_energy_repulsive:           32.303303

@<TRIPOS>MOLECULE
ZINC000543429378
 50 53 1 0 0
SMALL
USER_CHARGES


@<TRIPOS>ATOM
      1 O1         -8.9139   -0.3311   54.6808 O.2     1  ZINC000543429378   -0.5100
      2 C2         -9.6009   -0.5979   53.7176 C.2     1  ZINC000543429378    0.5200
      3 N3        -10.7600   -1.2660   53.8808 N.am    1  ZINC000543429378   -0.6600
      4 C4        -11.1680   -1.6567   55.1609 C.ar    1  ZINC000543429378    0.1900
      5 C5        -10.3120   -2.3940   55.9687 C.ar    1  ZINC000543429378   -0.1600
      6 C6        -10.7148   -2.7794   57.2329 C.ar    1  ZINC000543429378   -0.0600
      7 C7        -11.9694   -2.4329   57.6967 C.ar    1  ZINC000543429378   -0.2100
      8 C8        -12.8290   -1.6960   56.8937 C.ar    1  ZINC000543429378    0.1300
      9 O9        -14.0627   -1.3560   57.3512 O.3     1  ZINC000543429378   -0.3100
     10 C10       -14.7751   -2.3474   58.0940 C.3     1  ZINC000543429378    0.6000
     11 F11       -16.1506   -2.1244   57.9696 F       1  ZINC000543429378   -0.1600
     12 F12       -14.4617   -3.6171   57.5970 F       1  ZINC000543429378   -0.1300
     13 F13       -14.4105   -2.2714   59.4424 F       1  ZINC000543429378   -0.1600
     14 C14       -12.4265   -1.3028   55.6272 C.ar    1  ZINC000543429378   -0.1300
     15 C15        -9.1615   -0.1772   52.3388 C.3     1  ZINC000543429378    0.0700
     16 H16        -9.5412   -0.8801   51.5974 H       1  ZINC000543429378    0.1200
     17 C17        -7.6106   -0.1225   52.2711 C.3     1  ZINC000543429378   -0.1200
     18 C18        -7.3766    1.1141   51.3896 C.3     1  ZINC000543429378   -0.1000
     19 H19        -7.5350    0.8806   50.3368 H       1  ZINC000543429378    0.0900
     20 C20        -6.0451    1.8156   51.5972 C.3     1  ZINC000543429378   -0.1100
     21 C21        -6.0566    3.0834   50.7285 C.3     1  ZINC000543429378   -0.1200
     22 C22        -7.2227    3.9986   51.0902 C.3     1  ZINC000543429378   -0.1100
     23 C23        -8.5652    3.2527   51.0134 C.3     1  ZINC000543429378   -0.0900
     24 C24        -8.4871    2.0549   51.9310 C.3     1  ZINC000543429378    0.0700
     25 H25        -8.1962    2.3845   52.9285 H       1  ZINC000543429378    0.0900
     26 N26        -9.6621    1.1907   52.0430 N.3     1  ZINC000543429378   -0.4300
     27 C27       -10.5053    1.6278   53.0498 C.ar    1  ZINC000543429378    0.5000
     28 N28        -9.9823    2.0988   54.1723 N.ar    1  ZINC000543429378   -0.5300
     29 C29       -10.7599    2.5250   55.1538 C.ar    1  ZINC000543429378    0.1800
     30 C30       -12.1361    2.4741   54.9968 C.ar    1  ZINC000543429378   -0.2500
     31 C31       -12.6496    1.9755   53.8099 C.ar    1  ZINC000543429378    0.1800
     32 N32       -11.8162    1.5702   52.8660 N.ar    1  ZINC000543429378   -0.5300
     33 H33       -11.3114   -1.4759   53.1108 H       1  ZINC000543429378    0.4200
     34 H34        -9.3312   -2.6668   55.6082 H       1  ZINC000543429378    0.1400
     35 H35       -10.0479   -3.3528   57.8596 H       1  ZINC000543429378    0.1400
     36 H36       -12.2816   -2.7361   58.6851 H       1  ZINC000543429378    0.1400
     37 H37       -13.0940   -0.7294   55.0011 H       1  ZINC000543429378    0.1500
     38 H38        -7.1818    0.0193   53.2631 H       1  ZINC000543429378    0.0800
     39 H39        -7.2091   -1.0192   51.7990 H       1  ZINC000543429378    0.0900
     40 H40        -5.9280    2.0860   52.6466 H       1  ZINC000543429378    0.0700
     41 H41        -5.2293    1.1619   51.2885 H       1  ZINC000543429378    0.0700
     42 H42        -5.1212    3.6237   50.8743 H       1  ZINC000543429378    0.0600
     43 H43        -6.1411    2.7964   49.6804 H       1  ZINC000543429378    0.0600
     44 H44        -7.0805    4.3736   52.1038 H       1  ZINC000543429378    0.0600
     45 H45        -7.2426    4.8411   50.3990 H       1  ZINC000543429378    0.0700
     46 H46        -9.3737    3.9111   51.3312 H       1  ZINC000543429378    0.0700
     47 H47        -8.7424    2.9127   49.9930 H       1  ZINC000543429378    0.0700
     48 H48       -10.3277    2.9076   56.0666 H       1  ZINC000543429378    0.1600
     49 H49       -12.7940    2.8152   55.7825 H       1  ZINC000543429378    0.1400
     50 H50       -13.7173    1.9220   53.6560 H       1  ZINC000543429378    0.1600
@<TRIPOS>BOND
     1     1     2    2
     2     2     3   am
     3     2    15    1
     4     3     4    1
     5     3    33    1
     6     4    14   ar
     7     4     5   ar
     8     5     6   ar
     9     5    34    1
    10     6     7   ar
    11     6    35    1
    12     7     8   ar
    13     7    36    1
    14     8     9    1
    15     8    14   ar
    16     9    10    1
    17    10    11    1
    18    10    12    1
    19    10    13    1
    20    14    37    1
    21    15    16    1
    22    15    26    1
    23    15    17    1
    24    17    18    1
    25    17    38    1
    26    17    39    1
    27    18    19    1
    28    18    24    1
    29    18    20    1
    30    20    21    1
    31    20    40    1
    32    20    41    1
    33    21    22    1
    34    21    42    1
    35    21    43    1
    36    22    23    1
    37    22    44    1
    38    22    45    1
    39    23    24    1
    40    23    46    1
    41    23    47    1
    42    24    25    1
    43    24    26    1
    44    26    27    1
    45    27    32   ar
    46    27    28   ar
    47    28    29   ar
    48    29    30   ar
    49    29    48    1
    50    30    31   ar
    51    30    49    1
    52    31    32   ar
    53    31    50    1
@<TRIPOS>SUBSTRUCTURE
     1 ZINC000543429378        1 TEMP              0 ****  ****    0 ROOT


##########                                Name:    ZINC000928803822
##########                DOCK_Rotatable_Bonds:                   7
##########                         Heavy_Atoms:                  21
##########                    Molecular_Weight:             364.165
##########                DOCK_Rotatable_Bonds:                   7
##########                       Formal_Charge:         -0.00999978
##########                     HBond_Acceptors:                   7
##########                        HBond_Donors:                   1
##########                         Heavy_Atoms:                  21
##########                          Grid_Score:          -26.701527
##########                     Grid_vdw_energy:          -26.128967
##########                      Grid_es_energy:           -0.572559
##########           Internal_energy_repulsive:           11.553284

@<TRIPOS>MOLECULE
ZINC000928803822
 34 34 1 0 0
SMALL
USER_CHARGES


@<TRIPOS>ATOM
      1 C1         -2.0420   -0.5027   47.8581 C.3     1  ZINC000928803822    0.0900
      2 N2         -0.8933    0.0185   48.6033 N.pl3   1  ZINC000928803822   -0.6300
      3 C3          0.3929   -0.6809   48.5497 C.3     1  ZINC000928803822    0.0900
      4 C4         -1.0244    1.1824   49.3648 C.ar    1  ZINC000928803822    0.2200
      5 C5          0.0936    1.9585   49.6456 C.ar    1  ZINC000928803822   -0.1500
      6 C6         -0.0312    3.1118   50.3992 C.ar    1  ZINC000928803822   -0.0500
      7 Br7         1.4959    4.1616   50.7756 Br      1  ZINC000928803822   -0.0400
      8 C8         -1.2674    3.4990   50.8771 C.ar    1  ZINC000928803822   -0.1200
      9 C9         -2.3962    2.7258   50.6001 C.ar    1  ZINC000928803822   -0.0800
     10 C10        -3.7212    3.1382   51.1107 C.2     1  ZINC000928803822    0.5700
     11 O11        -3.8412    4.1878   51.7119 O.2     1  ZINC000928803822   -0.5100
     12 N12        -4.7960    2.3503   50.9095 N.am    1  ZINC000928803822   -0.7200
     13 C13        -6.1084    2.7580   51.4168 C.3     1  ZINC000928803822    0.1100
     14 H14        -6.1825    3.8454   51.4004 H       1  ZINC000928803822    0.1400
     15 C15        -6.2784    2.2568   52.8523 C.3     1  ZINC000928803822   -0.0300
     16 C16        -7.2620    3.0987   53.5527 C.1     1  ZINC000928803822    0.2000
     17 N17        -8.0210    3.7484   54.0933 N.1     1  ZINC000928803822   -0.4000
     18 C18        -7.2051    2.1588   50.5342 C.3     1  ZINC000928803822    0.4400
     19 F19        -7.0108    2.5639   49.2093 F       1  ZINC000928803822   -0.1800
     20 F20        -7.1519    0.7627   50.6074 F       1  ZINC000928803822   -0.1700
     21 F21        -8.4554    2.6017   50.9786 F       1  ZINC000928803822   -0.1600
     22 C22        -2.2711    1.5662   49.8356 C.ar    1  ZINC000928803822   -0.1200
     23 H23        -2.5996   -1.1957   48.4881 H       1  ZINC000928803822    0.0600
     24 H24        -2.6899    0.3234   47.5648 H       1  ZINC000928803822    0.0700
     25 H25        -1.6912   -1.0234   46.9671 H       1  ZINC000928803822    0.0700
     26 H26         0.9845   -0.2905   47.7217 H       1  ZINC000928803822    0.0500
     27 H27         0.9302   -0.5254   49.4853 H       1  ZINC000928803822    0.0700
     28 H28         0.2209   -1.7471   48.4024 H       1  ZINC000928803822    0.0700
     29 H29         1.0630    1.6602   49.2747 H       1  ZINC000928803822    0.1400
     30 H30        -1.3609    4.3999   51.4655 H       1  ZINC000928803822    0.1300
     31 H31        -4.7005    1.5132   50.4287 H       1  ZINC000928803822    0.4100
     32 H32        -6.6285    1.2246   52.8378 H       1  ZINC000928803822    0.1400
     33 H33        -5.3211    2.3084   53.3710 H       1  ZINC000928803822    0.1300
     34 H34        -3.1410    0.9642   49.6183 H       1  ZINC000928803822    0.1500
@<TRIPOS>BOND
     1     1     2    1
     2     1    23    1
     3     1    24    1
     4     1    25    1
     5     2     3    1
     6     2     4    1
     7     3    26    1
     8     3    27    1
     9     3    28    1
    10     4    22   ar
    11     4     5   ar
    12     5     6   ar
    13     5    29    1
    14     6     7    1
    15     6     8   ar
    16     8     9   ar
    17     8    30    1
    18     9    10    1
    19     9    22   ar
    20    10    11    2
    21    10    12   am
    22    12    13    1
    23    12    31    1
    24    13    14    1
    25    13    15    1
    26    13    18    1
    27    15    16    1
    28    15    32    1
    29    15    33    1
    30    16    17    3
    31    18    19    1
    32    18    20    1
    33    18    21    1
    34    22    34    1
@<TRIPOS>SUBSTRUCTURE
     1 ZINC000928803822        1 TEMP              0 ****  ****    0 ROOT


##########                                Name:    ZINC000459459628
##########                DOCK_Rotatable_Bonds:                   8
##########                         Heavy_Atoms:                  27
##########                    Molecular_Weight:             377.366
##########                DOCK_Rotatable_Bonds:                   8
##########                       Formal_Charge:         -0.00999984
##########                     HBond_Acceptors:                   8
##########                        HBond_Donors:                   1
##########                         Heavy_Atoms:                  27
##########                          Grid_Score:          -26.649527
##########                     Grid_vdw_energy:          -25.782185
##########                      Grid_es_energy:           -0.867342
##########           Internal_energy_repulsive:           13.906990

@<TRIPOS>MOLECULE
ZINC000459459628
 45 46 1 0 0
SMALL
USER_CHARGES


@<TRIPOS>ATOM
      1 C1         -7.9472   -1.3325   59.2232 C.3     1  ZINC000459459628   -0.1600
      2 C2         -9.4750   -1.3016   59.1463 C.3     1  ZINC000459459628    0.1600
      3 H3         -9.8036   -0.3062   58.8472 H       1  ZINC000459459628    0.1100
      4 C4        -10.0617   -1.6418   60.5178 C.3     1  ZINC000459459628   -0.0900
      5 C5         -9.9650   -0.4372   61.4183 C.ar    1  ZINC000459459628   -0.0500
      6 C6         -8.8092   -0.2052   62.1400 C.ar    1  ZINC000459459628   -0.1200
      7 C7         -8.7191    0.8995   62.9666 C.ar    1  ZINC000459459628   -0.0900
      8 C8         -9.7846    1.7729   63.0720 C.ar    1  ZINC000459459628   -0.1600
      9 C9        -10.9428    1.5417   62.3490 C.ar    1  ZINC000459459628    0.1000
     10 F10       -11.9853    2.3950   62.4513 F       1  ZINC000459459628   -0.1400
     11 C11       -11.0300    0.4382   61.5177 C.ar    1  ZINC000459459628   -0.1500
     12 N12        -9.9344   -2.2839   58.1613 N.am    1  ZINC000459459628   -0.6200
     13 C13       -10.0884   -3.6893   58.5453 C.3     1  ZINC000459459628    0.0700
     14 C14       -10.2151   -1.8948   56.9019 C.2     1  ZINC000459459628    0.7100
     15 O15       -10.5950   -2.7102   56.0839 O.2     1  ZINC000459459628   -0.5700
     16 N16       -10.0748   -0.6015   56.5492 N.am    1  ZINC000459459628   -0.6800
     17 C17       -10.3668   -0.1967   55.2391 C.ar    1  ZINC000459459628    0.1500
     18 C18        -9.4314   -0.3722   54.2361 C.ar    1  ZINC000459459628   -0.0400
     19 C19        -9.7268    0.0323   52.9314 C.ar    1  ZINC000459459628   -0.0300
     20 C20        -8.7619   -0.1475   51.8887 C.1     1  ZINC000459459628    0.2600
     21 N21        -7.9966   -0.2902   51.0615 N.1     1  ZINC000459459628   -0.4100
     22 C22       -10.9655    0.6122   52.6466 C.ar    1  ZINC000459459628   -0.0500
     23 C23       -11.8937    0.7850   53.6513 C.ar    1  ZINC000459459628   -0.1700
     24 C24       -11.6039    0.3785   54.9458 C.ar    1  ZINC000459459628    0.1100
     25 O25       -12.5220    0.5510   55.9319 O.3     1  ZINC000459459628   -0.3200
     26 C26       -12.7612    1.8904   56.3686 C.3     1  ZINC000459459628    0.4100
     27 F27       -11.5695    2.6206   56.3076 F       1  ZINC000459459628   -0.1900
     28 F28       -13.7170    2.4875   55.5397 F       1  ZINC000459459628   -0.1900
     29 H29        -7.6185   -2.3279   59.5222 H       1  ZINC000459459628    0.0600
     30 H30        -7.5293   -1.0902   58.2461 H       1  ZINC000459459628    0.0600
     31 H31        -7.6054   -0.6016   59.9560 H       1  ZINC000459459628    0.0700
     32 H32       -11.1073   -1.9280   60.4048 H       1  ZINC000459459628    0.0800
     33 H33        -9.5038   -2.4691   60.9564 H       1  ZINC000459459628    0.0900
     34 H34        -7.9761   -0.8876   62.0584 H       1  ZINC000459459628    0.1300
     35 H35        -7.8157    1.0796   63.5303 H       1  ZINC000459459628    0.1300
     36 H36        -9.7142    2.6354   63.7182 H       1  ZINC000459459628    0.1300
     37 H37       -11.9327    0.2571   60.9531 H       1  ZINC000459459628    0.1300
     38 H38       -11.1005   -3.8563   58.9138 H       1  ZINC000459459628    0.0600
     39 H39        -9.9079   -4.3248   57.6783 H       1  ZINC000459459628    0.0700
     40 H40        -9.3715   -3.9323   59.3296 H       1  ZINC000459459628    0.0800
     41 H41        -9.7718    0.0491   57.2017 H       1  ZINC000459459628    0.4100
     42 H42        -8.4748   -0.8206   54.4604 H       1  ZINC000459459628    0.1600
     43 H43       -11.1959    0.9256   51.6391 H       1  ZINC000459459628    0.1400
     44 H44       -12.8504    1.2341   53.4293 H       1  ZINC000459459628    0.1500
     45 H45       -13.1276    1.8779   57.3951 H       1  ZINC000459459628    0.1900
@<TRIPOS>BOND
     1     1     2    1
     2     1    29    1
     3     1    30    1
     4     1    31    1
     5     2     3    1
     6     2     4    1
     7     2    12    1
     8     4     5    1
     9     4    32    1
    10     4    33    1
    11     5    11   ar
    12     5     6   ar
    13     6     7   ar
    14     6    34    1
    15     7     8   ar
    16     7    35    1
    17     8     9   ar
    18     8    36    1
    19     9    10    1
    20     9    11   ar
    21    11    37    1
    22    12    13    1
    23    12    14   am
    24    13    38    1
    25    13    39    1
    26    13    40    1
    27    14    15    2
    28    14    16   am
    29    16    17    1
    30    16    41    1
    31    17    24   ar
    32    17    18   ar
    33    18    19   ar
    34    18    42    1
    35    19    20    1
    36    19    22   ar
    37    20    21    3
    38    22    23   ar
    39    22    43    1
    40    23    24   ar
    41    23    44    1
    42    24    25    1
    43    25    26    1
    44    26    27    1
    45    26    28    1
    46    26    45    1
@<TRIPOS>SUBSTRUCTURE
     1 ZINC000459459628        1 TEMP              0 ****  ****    0 ROOT


##########                                Name:    ZINC001045463759
##########                DOCK_Rotatable_Bonds:                   6
##########                         Heavy_Atoms:                  24
##########                    Molecular_Weight:             336.385
##########                DOCK_Rotatable_Bonds:                   6
##########                       Formal_Charge:          1.3411e-07
##########                     HBond_Acceptors:                   7
##########                        HBond_Donors:                   2
##########                         Heavy_Atoms:                  24
##########                          Grid_Score:          -26.609810
##########                     Grid_vdw_energy:          -26.466427
##########                      Grid_es_energy:           -0.143384
##########           Internal_energy_repulsive:            7.848087

@<TRIPOS>MOLECULE
ZINC001045463759
 46 49 1 0 0
SMALL
USER_CHARGES


@<TRIPOS>ATOM
      1 O1         -8.6179   -0.5557   51.3766 O.2     1  ZINC001045463759   -0.5100
      2 C2         -8.1666    0.3412   52.0569 C.2     1  ZINC001045463759    0.5400
      3 N3         -8.9448    0.9470   52.9755 N.am    1  ZINC001045463759   -0.7200
      4 C4        -10.3374    0.5263   53.1481 C.3     1  ZINC001045463759    0.1400
      5 H5        -10.5442   -0.3218   52.4953 H       1  ZINC001045463759    0.1000
      6 C6        -11.2688    1.6856   52.7885 C.3     1  ZINC001045463759   -0.1300
      7 C7        -12.7232    1.2461   52.9686 C.3     1  ZINC001045463759   -0.1200
      8 C8        -12.9559    0.8376   54.4247 C.3     1  ZINC001045463759   -0.1200
      9 C9        -12.0246   -0.3217   54.7842 C.3     1  ZINC001045463759   -0.1300
     10 C10       -10.5702    0.1177   54.6040 C.3     1  ZINC001045463759    0.1500
     11 H11       -10.3634    0.9659   55.2568 H       1  ZINC001045463759    0.0900
     12 N12        -9.6784   -0.9923   54.9484 N.pl3   1  ZINC001045463759   -0.7100
     13 C13        -9.7886   -1.6124   56.1824 C.ar    1  ZINC001045463759    0.4400
     14 C14       -10.3421   -2.8899   56.2873 C.ar    1  ZINC001045463759   -0.3000
     15 C15       -10.4301   -3.4653   57.5398 C.ar    1  ZINC001045463759    0.1800
     16 N16        -9.9898   -2.7918   58.5932 N.ar    1  ZINC001045463759   -0.5600
     17 C17        -9.4723   -1.5871   58.4610 C.ar    1  ZINC001045463759    0.4000
     18 C18        -8.9851   -0.8603   59.6880 C.3     1  ZINC001045463759   -0.1100
     19 C19        -9.8857    0.2336   60.2652 C.3     1  ZINC001045463759   -0.1500
     20 C20        -9.7386   -1.1015   60.9977 C.3     1  ZINC001045463759   -0.1500
     21 N21        -9.3639   -1.0025   57.2852 N.ar    1  ZINC001045463759   -0.5700
     22 C22        -6.7341    0.7741   51.8794 C.3     1  ZINC001045463759   -0.2000
     23 H23        -5.9898    0.1502   52.3742 H       1  ZINC001045463759    0.1500
     24 C24        -6.3481    1.4077   50.5414 C.3     1  ZINC001045463759   -0.1500
     25 C25        -6.4550    2.2762   51.7974 C.3     1  ZINC001045463759    0.2300
     26 F26        -7.5492    3.1427   51.8923 F       1  ZINC001045463759   -0.1400
     27 F27        -5.2638    2.7438   52.3626 F       1  ZINC001045463759   -0.1500
     28 H28        -8.5829    1.6617   53.5224 H       1  ZINC001045463759    0.4000
     29 H29       -11.0620    2.5336   53.4412 H       1  ZINC001045463759    0.0700
     30 H30       -11.1031    1.9766   51.7512 H       1  ZINC001045463759    0.0800
     31 H31       -13.3869    2.0721   52.7125 H       1  ZINC001045463759    0.0700
     32 H32       -12.9300    0.3981   52.3159 H       1  ZINC001045463759    0.0700
     33 H33       -12.7492    1.6857   55.0774 H       1  ZINC001045463759    0.0700
     34 H34       -13.9921    0.5246   54.5530 H       1  ZINC001045463759    0.0700
     35 H35       -12.1903   -0.6127   55.8215 H       1  ZINC001045463759    0.0700
     36 H36       -12.2314   -1.1698   54.1314 H       1  ZINC001045463759    0.0700
     37 H37        -9.0106   -1.2932   54.3124 H       1  ZINC001045463759    0.4100
     38 H38       -10.6931   -3.4148   55.4111 H       1  ZINC001045463759    0.1400
     39 H39       -10.8528   -4.4519   57.6596 H       1  ZINC001045463759    0.1700
     40 H40        -7.9074   -0.7091   59.7480 H       1  ZINC001045463759    0.1300
     41 H41        -9.4004    1.1050   60.7049 H       1  ZINC001045463759    0.1000
     42 H42       -10.8305    0.4277   59.7573 H       1  ZINC001045463759    0.1100
     43 H43       -10.5866   -1.7859   60.9717 H       1  ZINC001045463759    0.1000
     44 H44        -9.1566   -1.1086   61.9192 H       1  ZINC001045463759    0.1000
     45 H45        -5.3497    1.2010   50.1560 H       1  ZINC001045463759    0.1400
     46 H46        -7.1303    1.5115   49.7894 H       1  ZINC001045463759    0.1300
@<TRIPOS>BOND
     1     1     2    2
     2     2     3   am
     3     2    22    1
     4     3     4    1
     5     3    28    1
     6     4     5    1
     7     4    10    1
     8     4     6    1
     9     6     7    1
    10     6    29    1
    11     6    30    1
    12     7     8    1
    13     7    31    1
    14     7    32    1
    15     8     9    1
    16     8    33    1
    17     8    34    1
    18     9    10    1
    19     9    35    1
    20     9    36    1
    21    10    11    1
    22    10    12    1
    23    12    13    1
    24    12    37    1
    25    13    21   ar
    26    13    14   ar
    27    14    15   ar
    28    14    38    1
    29    15    16   ar
    30    15    39    1
    31    16    17   ar
    32    17    18    1
    33    17    21   ar
    34    18    20    1
    35    18    19    1
    36    18    40    1
    37    19    20    1
    38    19    41    1
    39    19    42    1
    40    20    43    1
    41    20    44    1
    42    22    23    1
    43    22    25    1
    44    22    24    1
    45    24    25    1
    46    24    45    1
    47    24    46    1
    48    25    26    1
    49    25    27    1
@<TRIPOS>SUBSTRUCTURE
     1 ZINC001045463759        1 TEMP              0 ****  ****    0 ROOT


##########                                Name:    ZINC000130059363
##########                DOCK_Rotatable_Bonds:                   4
##########                         Heavy_Atoms:                  29
##########                    Molecular_Weight:             389.497
##########                DOCK_Rotatable_Bonds:                   4
##########                       Formal_Charge:          -0.0100003
##########                     HBond_Acceptors:                   5
##########                        HBond_Donors:                   0
##########                         Heavy_Atoms:                  29
##########                          Grid_Score:          -26.555737
##########                     Grid_vdw_energy:          -26.475033
##########                      Grid_es_energy:           -0.080705
##########           Internal_energy_repulsive:           27.053024

@<TRIPOS>MOLECULE
ZINC000130059363
 56 60 1 0 0
SMALL
USER_CHARGES


@<TRIPOS>ATOM
      1 C1         -9.8589    0.0245   52.4304 C.3     1  ZINC000130059363   -0.1200
      2 C2         -8.9001    1.0766   52.9252 C.ar    1  ZINC000130059363    0.1900
      3 N3         -7.7597    1.2642   52.2980 N.ar    1  ZINC000130059363   -0.4800
      4 C4         -6.8844    2.1795   52.6974 C.ar    1  ZINC000130059363    0.2000
      5 C5         -5.6136    2.3501   51.9538 C.ar    1  ZINC000130059363   -0.0600
      6 C6         -5.4425    1.7405   50.7115 C.ar    1  ZINC000130059363   -0.1000
      7 C7         -4.2574    1.9033   50.0236 C.ar    1  ZINC000130059363   -0.1200
      8 C8         -3.2401    2.6691   50.5644 C.ar    1  ZINC000130059363   -0.1000
      9 C9         -3.4039    3.2758   51.7968 C.ar    1  ZINC000130059363   -0.1300
     10 C10        -4.5869    3.1253   52.4912 C.ar    1  ZINC000130059363   -0.0700
     11 C11        -7.1456    2.9827   53.8074 C.ar    1  ZINC000130059363   -0.1800
     12 C12        -8.3319    2.8179   54.4945 C.ar    1  ZINC000130059363   -0.0400
     13 C13        -9.2346    1.8461   54.0417 C.ar    1  ZINC000130059363   -0.1900
     14 C14       -10.5173    1.6315   54.7420 C.2     1  ZINC000130059363    0.5700
     15 O15       -11.4968    2.2798   54.4286 O.2     1  ZINC000130059363   -0.5200
     16 N16       -10.6018    0.7170   55.7284 N.am    1  ZINC000130059363   -0.6000
     17 C17        -9.4264   -0.0716   56.1248 C.3     1  ZINC000130059363    0.1000
     18 C18        -9.2094    0.1066   57.6304 C.3     1  ZINC000130059363   -0.1500
     19 C19       -10.4871   -0.2478   58.3828 C.3     1  ZINC000130059363    0.1500
     20 H20       -10.3140   -0.0759   59.4452 H       1  ZINC000130059363    0.0700
     21 C21       -11.6454    0.6438   57.9396 C.3     1  ZINC000130059363   -0.1100
     22 H22       -11.4347    1.6833   58.1906 H       1  ZINC000130059363    0.1000
     23 C23       -12.9138    0.1716   58.6679 C.3     1  ZINC000130059363   -0.1200
     24 C24       -13.2840   -1.2144   58.1337 C.3     1  ZINC000130059363   -0.1400
     25 C25       -12.0766   -2.1069   58.1268 C.2     1  ZINC000130059363    0.5200
     26 O26       -12.2482   -3.3041   58.0365 O.2     1  ZINC000130059363   -0.5400
     27 N27       -10.8326   -1.6488   58.2012 N.am    1  ZINC000130059363   -0.5700
     28 C28        -9.7335   -2.6144   58.1249 C.3     1  ZINC000130059363    0.0700
     29 C29        -8.6898   -2.5866   59.2433 C.3     1  ZINC000130059363   -0.1800
     30 C30        -9.7013   -3.7320   59.1694 C.3     1  ZINC000130059363   -0.1600
     31 C31       -11.8684    0.4904   56.4352 C.3     1  ZINC000130059363    0.1100
     32 H32       -10.5996    0.4862   51.7776 H       1  ZINC000130059363    0.0800
     33 H33        -9.3092   -0.7359   51.8756 H       1  ZINC000130059363    0.0800
     34 H34       -10.3612   -0.4378   53.2802 H       1  ZINC000130059363    0.1000
     35 H35        -6.2358    1.1420   50.2886 H       1  ZINC000130059363    0.1300
     36 H36        -4.1237    1.4318   49.0613 H       1  ZINC000130059363    0.1300
     37 H37        -2.3141    2.7934   50.0226 H       1  ZINC000130059363    0.1300
     38 H38        -2.6061    3.8722   52.2142 H       1  ZINC000130059363    0.1300
     39 H39        -4.7138    3.5995   53.4532 H       1  ZINC000130059363    0.1400
     40 H40        -6.4282    3.7246   54.1258 H       1  ZINC000130059363    0.1400
     41 H41        -8.5602    3.4257   55.3576 H       1  ZINC000130059363    0.1400
     42 H42        -9.5984   -1.1245   55.9009 H       1  ZINC000130059363    0.0700
     43 H43        -8.5485    0.2805   55.5832 H       1  ZINC000130059363    0.0900
     44 H44        -8.4018   -0.5472   57.9599 H       1  ZINC000130059363    0.0900
     45 H45        -8.9424    1.1428   57.8377 H       1  ZINC000130059363    0.0800
     46 H46       -12.7226    0.1136   59.7394 H       1  ZINC000130059363    0.0800
     47 H47       -13.7291    0.8692   58.4764 H       1  ZINC000130059363    0.0900
     48 H48       -14.0534   -1.6527   58.7693 H       1  ZINC000130059363    0.1000
     49 H49       -13.6685   -1.1192   57.1183 H       1  ZINC000130059363    0.1000
     50 H50        -9.3881   -2.8551   57.1196 H       1  ZINC000130059363    0.1100
     51 H51        -7.6573   -2.8088   58.9737 H       1  ZINC000130059363    0.1100
     52 H52        -8.8208   -1.8497   60.0357 H       1  ZINC000130059363    0.1000
     53 H53       -10.4979   -3.7488   59.9132 H       1  ZINC000130059363    0.1000
     54 H54        -9.3343   -4.7079   58.8512 H       1  ZINC000130059363    0.1000
     55 H55       -12.6087    1.2171   56.1008 H       1  ZINC000130059363    0.1000
     56 H56       -12.2232   -0.5177   56.2205 H       1  ZINC000130059363    0.0700
@<TRIPOS>BOND
     1     1     2    1
     2     1    32    1
     3     1    33    1
     4     1    34    1
     5     2    13   ar
     6     2     3   ar
     7     3     4   ar
     8     4     5    1
     9     4    11   ar
    10     5    10   ar
    11     5     6   ar
    12     6     7   ar
    13     6    35    1
    14     7     8   ar
    15     7    36    1
    16     8     9   ar
    17     8    37    1
    18     9    10   ar
    19     9    38    1
    20    10    39    1
    21    11    12   ar
    22    11    40    1
    23    12    13   ar
    24    12    41    1
    25    13    14    1
    26    14    15    2
    27    14    16   am
    28    16    31    1
    29    16    17    1
    30    17    18    1
    31    17    42    1
    32    17    43    1
    33    18    19    1
    34    18    44    1
    35    18    45    1
    36    19    20    1
    37    19    27    1
    38    19    21    1
    39    21    22    1
    40    21    23    1
    41    21    31    1
    42    23    24    1
    43    23    46    1
    44    23    47    1
    45    24    25    1
    46    24    48    1
    47    24    49    1
    48    25    26    2
    49    25    27   am
    50    27    28    1
    51    28    30    1
    52    28    29    1
    53    28    50    1
    54    29    30    1
    55    29    51    1
    56    29    52    1
    57    30    53    1
    58    30    54    1
    59    31    55    1
    60    31    56    1
@<TRIPOS>SUBSTRUCTURE
     1 ZINC000130059363        1 TEMP              0 ****  ****    0 ROOT


##########                                Name:    ZINC000836820897
##########                DOCK_Rotatable_Bonds:                   5
##########                         Heavy_Atoms:                  22
##########                    Molecular_Weight:             330.355
##########                DOCK_Rotatable_Bonds:                   5
##########                       Formal_Charge:          -0.0200003
##########                     HBond_Acceptors:                   8
##########                        HBond_Donors:                   1
##########                         Heavy_Atoms:                  22
##########                          Grid_Score:          -26.535412
##########                     Grid_vdw_energy:          -26.049934
##########                      Grid_es_energy:           -0.485478
##########           Internal_energy_repulsive:            6.945368

@<TRIPOS>MOLECULE
ZINC000836820897
 38 40 1 0 0
SMALL
USER_CHARGES


@<TRIPOS>ATOM
      1 O1         -6.6162    1.5126   57.8749 O.2     1  ZINC000836820897   -0.5200
      2 C2         -7.5459    1.0882   57.2165 C.2     1  ZINC000836820897    0.5800
      3 C3         -7.8180    1.6473   55.8765 C.ar    1  ZINC000836820897   -0.1600
      4 C4         -8.2971    2.9522   55.7458 C.ar    1  ZINC000836820897   -0.0100
      5 C5         -8.5489    3.4691   54.4928 C.ar    1  ZINC000836820897   -0.1700
      6 C6         -8.3273    2.6957   53.3638 C.ar    1  ZINC000836820897    0.2200
      7 F7         -8.5756    3.2072   52.1382 F       1  ZINC000836820897   -0.1100
      8 C8         -7.8510    1.3992   53.4879 C.ar    1  ZINC000836820897   -0.7200
      9 S9         -7.5710    0.4236   52.0476 S.o2    1  ZINC000836820897    2.7000
     10 O10        -6.5349   -0.4911   52.3777 O.2     1  ZINC000836820897   -0.9400
     11 O11        -8.8507    0.0144   51.5851 O.2     1  ZINC000836820897   -0.9400
     12 N12        -6.9538    1.4300   50.8862 N.am    1  ZINC000836820897   -1.0800
     13 C13        -5.6951    2.1400   51.1260 C.3     1  ZINC000836820897    0.0700
     14 C14        -4.6849    2.1946   49.9781 C.3     1  ZINC000836820897   -0.1800
     15 C15        -5.4675    3.4498   50.3687 C.3     1  ZINC000836820897   -0.1900
     16 C16        -7.5913    0.8743   54.7355 C.ar    1  ZINC000836820897    0.0600
     17 N17        -8.3249    0.1037   57.7068 N.am    1  ZINC000836820897   -0.6200
     18 C18        -8.1713   -0.5362   59.0215 C.3     1  ZINC000836820897    0.0900
     19 C19        -9.2991   -1.5809   59.1572 C.3     1  ZINC000836820897   -0.1600
     20 C20       -10.3635   -1.0763   58.1474 C.3     1  ZINC000836820897    0.0800
     21 H21       -10.9802   -0.2932   58.5884 H       1  ZINC000836820897    0.1100
     22 F22       -11.1549   -2.1326   57.6835 F       1  ZINC000836820897   -0.1900
     23 C23        -9.4761   -0.5056   57.0162 C.3     1  ZINC000836820897    0.0800
     24 H24        -8.4705    3.5554   56.6247 H       1  ZINC000836820897    0.1500
     25 H25        -8.9199    4.4783   54.3906 H       1  ZINC000836820897    0.1600
     26 H26        -7.4258    1.5494   50.0473 H       1  ZINC000836820897    0.4200
     27 H27        -5.3017    2.0702   52.1401 H       1  ZINC000836820897    0.1400
     28 H28        -3.6267    2.1603   50.2369 H       1  ZINC000836820897    0.1100
     29 H29        -4.9570    1.7020   49.0446 H       1  ZINC000836820897    0.1000
     30 H30        -6.2544    3.7833   49.6922 H       1  ZINC000836820897    0.1000
     31 H31        -4.9241    4.2416   50.8845 H       1  ZINC000836820897    0.1000
     32 H32        -7.2202   -0.1355   54.8310 H       1  ZINC000836820897    0.1600
     33 H33        -7.2007   -1.0283   59.0832 H       1  ZINC000836820897    0.0800
     34 H34        -8.2612    0.2109   59.8102 H       1  ZINC000836820897    0.0800
     35 H35        -8.9421   -2.5722   58.8781 H       1  ZINC000836820897    0.0900
     36 H36        -9.7006   -1.5856   60.1706 H       1  ZINC000836820897    0.1000
     37 H37       -10.0232    0.2466   56.4477 H       1  ZINC000836820897    0.1000
     38 H38        -9.1371   -1.3065   56.3593 H       1  ZINC000836820897    0.0900
@<TRIPOS>BOND
     1     1     2    2
     2     2     3    1
     3     2    17   am
     4     3    16   ar
     5     3     4   ar
     6     4     5   ar
     7     4    24    1
     8     5     6   ar
     9     5    25    1
    10     6     7    1
    11     6     8   ar
    12     8     9    1
    13     8    16   ar
    14     9    10    2
    15     9    11    2
    16     9    12   am
    17    12    13    1
    18    12    26    1
    19    13    15    1
    20    13    14    1
    21    13    27    1
    22    14    15    1
    23    14    28    1
    24    14    29    1
    25    15    30    1
    26    15    31    1
    27    16    32    1
    28    17    23    1
    29    17    18    1
    30    18    19    1
    31    18    33    1
    32    18    34    1
    33    19    20    1
    34    19    35    1
    35    19    36    1
    36    20    21    1
    37    20    22    1
    38    20    23    1
    39    23    37    1
    40    23    38    1
@<TRIPOS>SUBSTRUCTURE
     1 ZINC000836820897        1 TEMP              0 ****  ****    0 ROOT


##########                                Name:    ZINC000939075213
##########                DOCK_Rotatable_Bonds:                   7
##########                         Heavy_Atoms:                  24
##########                    Molecular_Weight:             327.426
##########                DOCK_Rotatable_Bonds:                   7
##########                       Formal_Charge:          -0.0200002
##########                     HBond_Acceptors:                   5
##########                        HBond_Donors:                   2
##########                         Heavy_Atoms:                  24
##########                          Grid_Score:          -26.507080
##########                     Grid_vdw_energy:          -27.168634
##########                      Grid_es_energy:            0.661554
##########           Internal_energy_repulsive:            6.647106

@<TRIPOS>MOLECULE
ZINC000939075213
 49 51 1 0 0
SMALL
USER_CHARGES


@<TRIPOS>ATOM
      1 C1        -10.8720   -1.0192   53.9475 C.3     1  ZINC000939075213   -0.1400
      2 C2        -10.7691   -0.4958   55.3814 C.3     1  ZINC000939075213   -0.1100
      3 H3        -11.3894    0.3902   55.5173 H       1  ZINC000939075213    0.0900
      4 C4         -9.2959   -0.2059   55.7623 C.3     1  ZINC000939075213    0.1100
      5 N5         -9.2570   -0.3171   57.2318 N.am    1  ZINC000939075213   -0.6200
      6 C6         -8.3554    0.2738   58.0408 C.2     1  ZINC000939075213    0.5600
      7 O7         -7.4753    0.9691   57.5665 O.2     1  ZINC000939075213   -0.5400
      8 C8         -8.4314    0.0861   59.4415 C.2     1  ZINC000939075213   -0.2600
      9 C9         -8.1816    1.1231   60.2790 C.2     1  ZINC000939075213    0.0400
     10 C10        -8.2575    0.9355   61.6812 C.2     1  ZINC000939075213    0.0000
     11 C11        -8.4122    1.9276   62.6318 C.2     1  ZINC000939075213   -0.1500
     12 C12        -8.4379    1.2994   63.8804 C.2     1  ZINC000939075213   -0.2200
     13 C13        -8.3021   -0.0337   63.6790 C.2     1  ZINC000939075213    0.0200
     14 N14        -8.1970   -0.2687   62.3461 N.pl3   1  ZINC000939075213   -0.5000
     15 C15       -10.3654   -1.1787   57.6688 C.3     1  ZINC000939075213    0.0900
     16 C16       -11.1449   -1.5999   56.4047 C.3     1  ZINC000939075213    0.1400
     17 H17       -10.8134   -2.5777   56.0552 H       1  ZINC000939075213    0.1100
     18 N18       -12.5870   -1.6053   56.6629 N.am    1  ZINC000939075213   -0.7200
     19 C19       -13.2086   -2.7554   56.9904 C.2     1  ZINC000939075213    0.5300
     20 O20       -12.5744   -3.7862   57.0700 O.2     1  ZINC000939075213   -0.5300
     21 C21       -14.6917   -2.7607   57.2576 C.3     1  ZINC000939075213   -0.0600
     22 C22       -15.4632   -3.0570   55.9701 C.3     1  ZINC000939075213   -0.1300
     23 C23       -15.0310   -3.7768   58.3232 C.2     1  ZINC000939075213   -0.1700
     24 C24       -15.8654   -3.2816   59.1962 C.2     1  ZINC000939075213   -0.1400
     25 C25       -16.2218   -1.8526   58.8585 C.3     1  ZINC000939075213   -0.1100
     26 C26       -15.1367   -1.4043   57.8521 C.3     1  ZINC000939075213   -0.1100
     27 H27       -11.9055   -1.2913   53.7332 H       1  ZINC000939075213    0.0600
     28 H28       -10.5493   -0.2431   53.2534 H       1  ZINC000939075213    0.0700
     29 H29       -10.2345   -1.8960   53.8341 H       1  ZINC000939075213    0.0600
     30 H30        -8.6344   -0.9437   55.3084 H       1  ZINC000939075213    0.0700
     31 H31        -9.0144    0.7999   55.4505 H       1  ZINC000939075213    0.0800
     32 H32        -8.6884   -0.8828   59.8433 H       1  ZINC000939075213    0.1300
     33 H33        -7.9246    2.0920   59.8770 H       1  ZINC000939075213    0.1500
     34 H34        -8.4965    2.9880   62.4450 H       1  ZINC000939075213    0.1400
     35 H35        -8.5468    1.7898   64.8364 H       1  ZINC000939075213    0.1400
     36 H36        -8.2840   -0.7869   64.4528 H       1  ZINC000939075213    0.1600
     37 H37        -8.0910   -1.1394   61.9316 H       1  ZINC000939075213    0.4100
     38 H38        -9.9720   -2.0611   58.1736 H       1  ZINC000939075213    0.0800
     39 H39       -11.0215   -0.6261   58.3413 H       1  ZINC000939075213    0.0700
     40 H40       -13.0944   -0.7812   56.5981 H       1  ZINC000939075213    0.4000
     41 H41       -15.1586   -4.0279   55.5793 H       1  ZINC000939075213    0.0600
     42 H42       -16.5322   -3.0697   56.1818 H       1  ZINC000939075213    0.0700
     43 H43       -15.2481   -2.2846   55.2316 H       1  ZINC000939075213    0.0600
     44 H44       -14.6353   -4.7811   58.3576 H       1  ZINC000939075213    0.1300
     45 H45       -16.2509   -3.8224   60.0478 H       1  ZINC000939075213    0.1300
     46 H46       -17.2089   -1.8059   58.3983 H       1  ZINC000939075213    0.0800
     47 H47       -16.1894   -1.2315   59.7535 H       1  ZINC000939075213    0.0800
     48 H48       -14.3097   -0.9105   58.3626 H       1  ZINC000939075213    0.0900
     49 H49       -15.5599   -0.7594   57.0820 H       1  ZINC000939075213    0.0800
@<TRIPOS>BOND
     1     1     2    1
     2     1    27    1
     3     1    28    1
     4     1    29    1
     5     2     3    1
     6     2    16    1
     7     2     4    1
     8     4     5    1
     9     4    30    1
    10     4    31    1
    11     5     6   am
    12     5    15    1
    13     6     7    2
    14     6     8    1
    15     8     9    2
    16     8    32    1
    17     9    10    1
    18     9    33    1
    19    10    14    1
    20    10    11    2
    21    11    12    1
    22    11    34    1
    23    12    13    2
    24    12    35    1
    25    13    14    1
    26    13    36    1
    27    14    37    1
    28    15    16    1
    29    15    38    1
    30    15    39    1
    31    16    17    1
    32    16    18    1
    33    18    19   am
    34    18    40    1
    35    19    20    2
    36    19    21    1
    37    21    26    1
    38    21    22    1
    39    21    23    1
    40    22    41    1
    41    22    42    1
    42    22    43    1
    43    23    24    2
    44    23    44    1
    45    24    25    1
    46    24    45    1
    47    25    26    1
    48    25    46    1
    49    25    47    1
    50    26    48    1
    51    26    49    1
@<TRIPOS>SUBSTRUCTURE
     1 ZINC000939075213        1 TEMP              0 ****  ****    0 ROOT


##########                                Name:    ZINC000338927927
##########                DOCK_Rotatable_Bonds:                   9
##########                         Heavy_Atoms:                  23
##########                    Molecular_Weight:             336.286
##########                DOCK_Rotatable_Bonds:                   9
##########                       Formal_Charge:         -0.00999999
##########                     HBond_Acceptors:                   9
##########                        HBond_Donors:                   2
##########                         Heavy_Atoms:                  23
##########                          Grid_Score:          -26.493036
##########                     Grid_vdw_energy:          -25.390621
##########                      Grid_es_energy:           -1.102416
##########           Internal_energy_repulsive:            6.600131

@<TRIPOS>MOLECULE
ZINC000338927927
 39 39 1 0 0
SMALL
USER_CHARGES


@<TRIPOS>ATOM
      1 C1         -9.8727   -3.3616   58.4578 C.3     1  <0>        -0.1600
      2 C2         -9.1321   -2.7091   59.6268 C.3     1  <0>        -0.1100
      3 C3         -9.5371   -1.2373   59.7293 C.3     1  <0>        -0.1000
      4 H4        -10.5993   -1.1363   59.5063 H       1  <0>         0.1400
      5 C5         -8.7373   -0.4262   58.7427 C.2     1  <0>         0.5200
      6 O6         -7.5253   -0.4628   58.7687 O.2     1  <0>        -0.4700
      7 N7         -9.3689    0.3400   57.8312 N.am    1  <0>        -0.6700
      8 C8         -8.6264    1.0930   56.9151 C.ar    1  <0>         0.2200
      9 C9         -8.0119    2.2706   57.3201 C.ar    1  <0>        -0.2300
     10 C10        -7.2772    3.0161   56.4143 C.ar    1  <0>         0.1700
     11 F11        -6.6802    4.1614   56.8105 F       1  <0>        -0.1300
     12 C12        -7.1528    2.5896   55.1040 C.ar    1  <0>        -0.2500
     13 C13        -7.7660    1.4119   54.6947 C.ar    1  <0>         0.2600
     14 N14        -7.6406    0.9819   53.3717 N.pl3   1  <0>        -0.7400
     15 C15        -6.3119    0.8306   52.7735 C.3     1  <0>         0.0800
     16 C16        -6.4493    0.6818   51.2571 C.3     1  <0>         0.4500
     17 F17        -7.0687   -0.5375   50.9623 F       1  <0>        -0.1800
     18 F18        -7.2243    1.7322   50.7537 F       1  <0>        -0.1700
     19 F19        -5.1806    0.7147   50.6684 F       1  <0>        -0.1800
     20 C20        -8.4988    0.6604   55.6027 C.ar    1  <0>        -0.2000
     21 C21        -9.2674   -0.7381   61.1255 C.2     1  <0>         0.4600
     22 O22       -10.1874   -0.4251   61.8434 O.2     1  <0>        -0.4600
     23 O23        -8.0051   -0.6412   61.5714 O.3     1  <0>        -0.3500
     24 C24        -7.8214   -0.1760   62.9345 C.3     1  <0>         0.0300
     25 H25        -9.6141   -2.8483   57.5317 H       1  <0>         0.0600
     26 H26        -9.5842   -4.4102   58.3848 H       1  <0>         0.0600
     27 H27       -10.9477   -3.2913   58.6241 H       1  <0>         0.0800
     28 H28        -9.3908   -3.2225   60.5528 H       1  <0>         0.0800
     29 H29        -8.0572   -2.7794   59.4604 H       1  <0>         0.0800
     30 H30       -10.3382    0.3692   57.8104 H       1  <0>         0.4200
     31 H31        -8.1077    2.6053   58.3424 H       1  <0>         0.1400
     32 H32        -6.5791    3.1727   54.3989 H       1  <0>         0.1400
     33 H33        -8.4332    0.7835   52.8491 H       1  <0>         0.4100
     34 H34        -5.7095    1.7105   52.9992 H       1  <0>         0.1100
     35 H35        -5.8279   -0.0560   53.1832 H       1  <0>         0.1100
     36 H36        -8.9760   -0.2552   55.2862 H       1  <0>         0.1500
     37 H37        -6.7570   -0.1441   63.1672 H       1  <0>         0.1000
     38 H38        -8.2460    0.8225   63.0380 H       1  <0>         0.0600
     39 H39        -8.3232   -0.8573   63.6217 H       1  <0>         0.0600
@<TRIPOS>BOND
     1     1     2    1
     2     1    25    1
     3     1    26    1
     4     1    27    1
     5     2     3    1
     6     2    28    1
     7     2    29    1
     8     3     4    1
     9     3     5    1
    10     3    21    1
    11     5     6    2
    12     5     7   am
    13     7     8    1
    14     7    30    1
    15     8    20   ar
    16     8     9   ar
    17     9    10   ar
    18     9    31    1
    19    10    11    1
    20    10    12   ar
    21    12    13   ar
    22    12    32    1
    23    13    14    1
    24    13    20   ar
    25    14    15    1
    26    14    33    1
    27    15    16    1
    28    15    34    1
    29    15    35    1
    30    16    17    1
    31    16    18    1
    32    16    19    1
    33    20    36    1
    34    21    22    2
    35    21    23    1
    36    23    24    1
    37    24    37    1
    38    24    38    1
    39    24    39    1
@<TRIPOS>SUBSTRUCTURE
     1 <0>         1 TEMP              0 ****  ****    0 ROOT


##########                                Name:    ZINC000154446008
##########                DOCK_Rotatable_Bonds:                   5
##########                         Heavy_Atoms:                  24
##########                    Molecular_Weight:              349.41
##########                DOCK_Rotatable_Bonds:                   5
##########                       Formal_Charge:          -0.0199999
##########                     HBond_Acceptors:                   8
##########                        HBond_Donors:                   0
##########                         Heavy_Atoms:                  24
##########                          Grid_Score:          -26.488968
##########                     Grid_vdw_energy:          -24.347864
##########                      Grid_es_energy:           -2.141103
##########           Internal_energy_repulsive:           13.588551

@<TRIPOS>MOLECULE
ZINC000154446008
 43 45 1 0 0
SMALL
USER_CHARGES


@<TRIPOS>ATOM
      1 O1        -11.6281    1.2340   63.7382 O.2     1  ZINC000154446008   -0.5000
      2 C2        -10.4432    1.2285   63.4602 C.2     1  ZINC000154446008    0.5900
      3 C3         -9.4445    1.4801   64.5033 C.2     1  ZINC000154446008   -0.2300
      4 C4         -8.7528    2.6462   64.6737 C.2     1  ZINC000154446008   -0.0600
      5 C5         -7.8770    2.6089   65.7327 C.2     1  ZINC000154446008   -0.0500
      6 C6         -7.8508    1.4535   66.4073 C.2     1  ZINC000154446008   -0.2100
      7 N7         -6.9875    1.1859   67.5797 N.pl3   1  ZINC000154446008    0.0500
      8 O8         -6.2237    2.0451   67.9822 O.2     1  ZINC000154446008   -0.1300
      9 O9         -7.0409    0.1067   68.1417 O.2     1  ZINC000154446008   -0.1500
     10 S10        -8.9503    0.3323   65.7401 S.3     1  ZINC000154446008    0.3500
     11 N11       -10.0492    0.9857   62.1944 N.am    1  ZINC000154446008   -0.6100
     12 C12        -8.6215    0.9640   61.8466 C.3     1  ZINC000154446008    0.0800
     13 C13        -8.3000   -0.3791   61.1795 C.3     1  ZINC000154446008    0.0900
     14 N14        -9.2903   -0.6273   60.1225 N.am    1  ZINC000154446008   -0.6100
     15 C15        -8.8962   -0.8711   58.8568 C.2     1  ZINC000154446008    0.5500
     16 O16        -7.7118   -0.8870   58.5812 O.2     1  ZINC000154446008   -0.5300
     17 C17        -9.8987   -1.1179   57.8089 C.2     1  ZINC000154446008   -0.1500
     18 C18       -10.4095   -2.3263   57.7124 C.2     1  ZINC000154446008   -0.1100
     19 C19       -11.4320   -2.7210   56.6870 C.3     1  ZINC000154446008   -0.1000
     20 C20       -12.0860   -1.4739   56.0882 C.3     1  ZINC000154446008   -0.1200
     21 C21       -10.9796   -0.5031   55.6576 C.3     1  ZINC000154446008   -0.1200
     22 C22       -10.2839    0.0250   56.9156 C.3     1  ZINC000154446008   -0.0700
     23 C23       -10.7181   -0.6056   60.4702 C.3     1  ZINC000154446008    0.1000
     24 C24       -11.0394    0.7319   61.1384 C.3     1  ZINC000154446008    0.1000
     25 H25        -8.8813    3.5109   64.0397 H       1  ZINC000154446008    0.1800
     26 H26        -7.2552    3.4504   66.0004 H       1  ZINC000154446008    0.1800
     27 H27        -8.4008    1.7777   61.1558 H       1  ZINC000154446008    0.0900
     28 H28        -8.0230    1.0760   62.7507 H       1  ZINC000154446008    0.0900
     29 H29        -7.3015   -0.3415   60.7438 H       1  ZINC000154446008    0.1100
     30 H30        -8.3485   -1.1767   61.9209 H       1  ZINC000154446008    0.0800
     31 H31       -10.0735   -3.0781   58.4113 H       1  ZINC000154446008    0.1100
     32 H32       -10.9474   -3.2907   55.8942 H       1  ZINC000154446008    0.0900
     33 H33       -12.1964   -3.3390   57.1581 H       1  ZINC000154446008    0.0800
     34 H34       -12.6847   -1.7545   55.2217 H       1  ZINC000154446008    0.0700
     35 H35       -12.7201   -0.9979   56.8363 H       1  ZINC000154446008    0.0700
     36 H36       -10.2587   -1.0252   55.0285 H       1  ZINC000154446008    0.0700
     37 H37       -11.4168    0.3288   55.1055 H       1  ZINC000154446008    0.0700
     38 H38       -10.9593    0.6950   57.4477 H       1  ZINC000154446008    0.0800
     39 H39        -9.3862    0.5730   56.6292 H       1  ZINC000154446008    0.0700
     40 H40       -11.3165   -0.7176   59.5661 H       1  ZINC000154446008    0.1100
     41 H41       -10.9387   -1.4193   61.1611 H       1  ZINC000154446008    0.0800
     42 H42       -12.0379    0.6929   61.5736 H       1  ZINC000154446008    0.1100
     43 H43       -10.9909    1.5312   60.3990 H       1  ZINC000154446008    0.0800
@<TRIPOS>BOND
     1     1     2    2
     2     2     3    1
     3     2    11   am
     4     3    10    1
     5     3     4    2
     6     4     5    1
     7     4    25    1
     8     5     6    2
     9     5    26    1
    10     6     7    1
    11     6    10    1
    12     7     8    2
    13     7     9    2
    14    11    24    1
    15    11    12    1
    16    12    13    1
    17    12    27    1
    18    12    28    1
    19    13    14    1
    20    13    29    1
    21    13    30    1
    22    14    15   am
    23    14    23    1
    24    15    16    2
    25    15    17    1
    26    17    22    1
    27    17    18    2
    28    18    19    1
    29    18    31    1
    30    19    20    1
    31    19    32    1
    32    19    33    1
    33    20    21    1
    34    20    34    1
    35    20    35    1
    36    21    22    1
    37    21    36    1
    38    21    37    1
    39    22    38    1
    40    22    39    1
    41    23    24    1
    42    23    40    1
    43    23    41    1
    44    24    42    1
    45    24    43    1
@<TRIPOS>SUBSTRUCTURE
     1 ZINC000154446008        1 TEMP              0 ****  ****    0 ROOT


##########                                Name:    ZINC000560467340
##########                DOCK_Rotatable_Bonds:                   7
##########                         Heavy_Atoms:                  24
##########                    Molecular_Weight:             369.481
##########                DOCK_Rotatable_Bonds:                   7
##########                       Formal_Charge:          -0.0199997
##########                     HBond_Acceptors:                   7
##########                        HBond_Donors:                   2
##########                         Heavy_Atoms:                  24
##########                          Grid_Score:          -26.479153
##########                     Grid_vdw_energy:          -22.814644
##########                      Grid_es_energy:           -3.664508
##########           Internal_energy_repulsive:           22.132389

@<TRIPOS>MOLECULE
ZINC000560467340
 44 46 1 0 0
SMALL
USER_CHARGES


@<TRIPOS>ATOM
      1 O1         -9.0545    1.7706   66.9339 O.2     1  ZINC000560467340   -0.9600
      2 S2         -8.0375    1.0597   66.2414 S.o2    1  ZINC000560467340    2.7100
      3 O3         -7.9535   -0.3587   66.2258 O.2     1  ZINC000560467340   -0.9500
      4 N4         -8.1254    1.5404   64.6592 N.am    1  ZINC000560467340   -1.0900
      5 C5         -9.3012    1.2000   63.8544 C.3     1  ZINC000560467340    0.1400
      6 C6         -9.4718    2.2325   62.7383 C.3     1  ZINC000560467340   -0.0500
      7 C7         -8.3264    2.1094   61.7315 C.3     1  ZINC000560467340   -0.0700
      8 C8         -8.6255    0.9929   60.7644 C.ar    1  ZINC000560467340   -0.0900
      9 C9         -9.1023    1.2837   59.4998 C.ar    1  ZINC000560467340   -0.0900
     10 C10        -9.3769    0.2607   58.6121 C.ar    1  ZINC000560467340   -0.1500
     11 C11        -9.1739   -1.0559   58.9897 C.ar    1  ZINC000560467340    0.1000
     12 F12        -9.4416   -2.0567   58.1226 F       1  ZINC000560467340   -0.1400
     13 C13        -8.6959   -1.3459   60.2563 C.ar    1  ZINC000560467340   -0.1500
     14 C14        -8.4174   -0.3209   61.1407 C.ar    1  ZINC000560467340   -0.0900
     15 C15        -9.5022    3.6549   63.3345 C.3     1  ZINC000560467340   -0.1300
     16 C16       -10.5433    4.4074   62.4690 C.3     1  ZINC000560467340   -0.1200
     17 C17       -11.6249    3.3272   62.2193 C.3     1  ZINC000560467340   -0.1600
     18 C18       -10.8215    2.0241   62.0293 C.3     1  ZINC000560467340    0.1100
     19 H19       -10.6604    1.8362   60.9677 H       1  ZINC000560467340    0.0600
     20 O20       -11.5214    0.9270   62.6196 O.3     1  ZINC000560467340   -0.5500
     21 C21        -6.5015    1.6420   66.8788 C.2     1  ZINC000560467340   -0.6900
     22 C22        -5.4103    0.8766   66.9321 C.2     1  ZINC000560467340   -0.1000
     23 S23        -4.0792    1.7942   67.6244 S.3     1  ZINC000560467340    0.1500
     24 C24        -5.1098    3.2077   67.8080 C.2     1  ZINC000560467340   -0.2200
     25 C25        -6.3340    2.9302   67.3568 C.2     1  ZINC000560467340   -0.0700
     26 H26        -7.3984    2.0475   64.2653 H       1  ZINC000560467340    0.4200
     27 H27        -9.1680    0.2106   63.4169 H       1  ZINC000560467340    0.0600
     28 H28       -10.1879    1.2004   64.4884 H       1  ZINC000560467340    0.0800
     29 H29        -8.2216    3.0460   61.1839 H       1  ZINC000560467340    0.0800
     30 H30        -7.3988    1.8924   62.2611 H       1  ZINC000560467340    0.0800
     31 H31        -9.2605    2.3107   59.2056 H       1  ZINC000560467340    0.1300
     32 H32        -9.7501    0.4881   57.6245 H       1  ZINC000560467340    0.1400
     33 H33        -8.5375   -2.3725   60.5521 H       1  ZINC000560467340    0.1400
     34 H34        -8.0443   -0.5469   62.1287 H       1  ZINC000560467340    0.1300
     35 H35        -9.8221    3.6253   64.3761 H       1  ZINC000560467340    0.0700
     36 H36        -8.5229    4.1257   63.2484 H       1  ZINC000560467340    0.0800
     37 H37       -10.9608    5.2532   63.0152 H       1  ZINC000560467340    0.0700
     38 H38       -10.0998    4.7345   61.5286 H       1  ZINC000560467340    0.0700
     39 H39       -12.2875    3.2447   63.0808 H       1  ZINC000560467340    0.0800
     40 H40       -12.1947    3.5588   61.3193 H       1  ZINC000560467340    0.0700
     41 H41       -12.3021    1.1862   63.1279 H       1  ZINC000560467340    0.3800
     42 H42        -5.3531   -0.1499   66.6010 H       1  ZINC000560467340    0.1800
     43 H43        -4.7978    4.1564   68.2189 H       1  ZINC000560467340    0.1700
     44 H44        -7.1360    3.6535   67.3708 H       1  ZINC000560467340    0.1500
@<TRIPOS>BOND
     1     1     2    2
     2     2     3    2
     3     2     4   am
     4     2    21    1
     5     4     5    1
     6     4    26    1
     7     5     6    1
     8     5    27    1
     9     5    28    1
    10     6    18    1
    11     6     7    1
    12     6    15    1
    13     7     8    1
    14     7    29    1
    15     7    30    1
    16     8    14   ar
    17     8     9   ar
    18     9    10   ar
    19     9    31    1
    20    10    11   ar
    21    10    32    1
    22    11    12    1
    23    11    13   ar
    24    13    14   ar
    25    13    33    1
    26    14    34    1
    27    15    16    1
    28    15    35    1
    29    15    36    1
    30    16    17    1
    31    16    37    1
    32    16    38    1
    33    17    18    1
    34    17    39    1
    35    17    40    1
    36    18    19    1
    37    18    20    1
    38    20    41    1
    39    21    25    1
    40    21    22    2
    41    22    23    1
    42    22    42    1
    43    23    24    1
    44    24    25    2
    45    24    43    1
    46    25    44    1
@<TRIPOS>SUBSTRUCTURE
     1 ZINC000560467340        1 TEMP              0 ****  ****    0 ROOT


##########                                Name:    ZINC000866034032
##########                DOCK_Rotatable_Bonds:                   4
##########                         Heavy_Atoms:                  23
##########                    Molecular_Weight:             383.242
##########                DOCK_Rotatable_Bonds:                   4
##########                       Formal_Charge:           0.0199999
##########                     HBond_Acceptors:                   6
##########                        HBond_Donors:                   1
##########                         Heavy_Atoms:                  23
##########                          Grid_Score:          -26.472763
##########                     Grid_vdw_energy:          -26.223917
##########                      Grid_es_energy:           -0.248847
##########           Internal_energy_repulsive:           13.490722

@<TRIPOS>MOLECULE
ZINC000866034032
 42 44 1 0 0
SMALL
USER_CHARGES


@<TRIPOS>ATOM
      1 C1        -10.7333    0.2969   52.0761 C.3     1  ZINC000866034032   -0.1300
      2 C2        -10.6406    0.3025   53.6033 C.3     1  ZINC000866034032   -0.0800
      3 C3        -11.9802    0.0035   54.2794 C.3     1  ZINC000866034032   -0.1300
      4 C4         -9.4748   -0.5356   54.1503 C.3     1  ZINC000866034032    0.1400
      5 H5         -9.1513   -1.3258   53.4728 H       1  ZINC000866034032    0.1100
      6 N6         -9.6893   -1.0135   55.5184 N.am    1  ZINC000866034032   -0.7000
      7 C7        -10.2051   -2.2404   55.7305 C.2     1  ZINC000866034032    0.5100
      8 O8        -10.4930   -2.9483   54.7887 O.2     1  ZINC000866034032   -0.5300
      9 C9        -10.4242   -2.7328   57.1378 C.3     1  ZINC000866034032   -0.1100
     10 C10       -11.8578   -2.4935   57.5363 C.ar    1  ZINC000866034032   -0.0500
     11 C11       -12.2602   -1.2362   57.9460 C.ar    1  ZINC000866034032   -0.0500
     12 C12       -13.5750   -1.0162   58.3121 C.ar    1  ZINC000866034032   -0.0900
     13 C13       -14.4878   -2.0543   58.2678 C.ar    1  ZINC000866034032   -0.0500
     14 Br14      -16.2866   -1.7539   58.7679 Br      1  ZINC000866034032    0.0200
     15 C15       -14.0847   -3.3124   57.8573 C.ar    1  ZINC000866034032   -0.0200
     16 N16       -15.0612   -4.4235   57.8093 N.pl3   1  ZINC000866034032    0.0200
     17 O17       -14.7061   -5.5312   57.4478 O.2     1  ZINC000866034032   -0.1600
     18 O18       -16.2199   -4.2304   58.1313 O.2     1  ZINC000866034032   -0.1300
     19 C19       -12.7713   -3.5301   57.4865 C.ar    1  ZINC000866034032   -0.0300
     20 C20        -8.6107    0.7335   54.0701 C.3     1  ZINC000866034032   -0.1500
     21 H21        -8.0198    0.8604   53.1630 H       1  ZINC000866034032    0.1200
     22 C22        -7.8687    1.0388   55.3904 C.3     1  ZINC000866034032   -0.1400
     23 C23        -8.8181    1.9959   56.1440 C.3     1  ZINC000866034032    0.0500
     24 O24       -10.1281    1.7167   55.6045 O.3     1  ZINC000866034032   -0.3600
     25 C25        -9.9304    1.5406   54.1701 C.3     1  ZINC000866034032    0.0600
     26 H26        -9.9948    2.4562   53.5821 H       1  ZINC000866034032    0.1000
     27 H27        -9.7970    0.6619   51.6539 H       1  ZINC000866034032    0.0600
     28 H28       -10.9178   -0.7190   51.7270 H       1  ZINC000866034032    0.0700
     29 H29       -11.5513    0.9441   51.7594 H       1  ZINC000866034032    0.0700
     30 H30       -12.2475   -1.0396   54.1107 H       1  ZINC000866034032    0.0600
     31 H31       -11.8959    0.1882   55.3504 H       1  ZINC000866034032    0.0600
     32 H32       -12.7515    0.6488   53.8590 H       1  ZINC000866034032    0.0600
     33 H33        -9.4602   -0.4469   56.2717 H       1  ZINC000866034032    0.4100
     34 H34       -10.2067   -3.7998   57.1875 H       1  ZINC000866034032    0.1100
     35 H35        -9.7634   -2.1953   57.8179 H       1  ZINC000866034032    0.1200
     36 H36       -11.5473   -0.4257   57.9806 H       1  ZINC000866034032    0.1500
     37 H37       -13.8893   -0.0340   58.6329 H       1  ZINC000866034032    0.1600
     38 H38       -12.4565   -4.5122   57.1656 H       1  ZINC000866034032    0.1600
     39 H39        -7.7158    0.1239   55.9627 H       1  ZINC000866034032    0.0800
     40 H40        -6.9155    1.5275   55.1884 H       1  ZINC000866034032    0.0800
     41 H41        -8.7962    1.7879   57.2138 H       1  ZINC000866034032    0.0900
     42 H42        -8.5421    3.0329   55.9525 H       1  ZINC000866034032    0.0600
@<TRIPOS>BOND
     1     1     2    1
     2     1    27    1
     3     1    28    1
     4     1    29    1
     5     2    25    1
     6     2     3    1
     7     2     4    1
     8     3    30    1
     9     3    31    1
    10     3    32    1
    11     4     5    1
    12     4     6    1
    13     4    20    1
    14     6     7   am
    15     6    33    1
    16     7     8    2
    17     7     9    1
    18     9    10    1
    19     9    34    1
    20     9    35    1
    21    10    19   ar
    22    10    11   ar
    23    11    12   ar
    24    11    36    1
    25    12    13   ar
    26    12    37    1
    27    13    14    1
    28    13    15   ar
    29    15    16    1
    30    15    19   ar
    31    16    17    2
    32    16    18    2
    33    19    38    1
    34    20    21    1
    35    20    25    1
    36    20    22    1
    37    22    23    1
    38    22    39    1
    39    22    40    1
    40    23    24    1
    41    23    41    1
    42    23    42    1
    43    24    25    1
    44    25    26    1
@<TRIPOS>SUBSTRUCTURE
     1 ZINC000866034032        1 TEMP              0 ****  ****    0 ROOT


##########                                Name:    ZINC000010935976
##########                DOCK_Rotatable_Bonds:                   3
##########                         Heavy_Atoms:                  26
##########                    Molecular_Weight:             391.558
##########                DOCK_Rotatable_Bonds:                   3
##########                       Formal_Charge:         -0.00999979
##########                     HBond_Acceptors:                   7
##########                        HBond_Donors:                   1
##########                         Heavy_Atoms:                  26
##########                          Grid_Score:          -26.392586
##########                     Grid_vdw_energy:          -26.415314
##########                      Grid_es_energy:            0.022727
##########           Internal_energy_repulsive:          128.990341

@<TRIPOS>MOLECULE
ZINC000010935976
 51 54 1 0 0
SMALL
USER_CHARGES


@<TRIPOS>ATOM
      1 C1         -7.6237   -0.1955   51.1279 C.3     1  ZINC000010935976   -0.0800
      2 C2         -8.0652    0.1214   52.5334 C.2     1  ZINC000010935976   -0.2100
      3 C3         -7.5617    1.0923   53.2703 C.2     1  ZINC000010935976   -0.0400
      4 C4         -6.4703    2.0056   52.7742 C.3     1  ZINC000010935976   -0.1000
      5 C5         -8.1401    1.2136   54.5957 C.2     1  ZINC000010935976   -0.2300
      6 C6         -9.1298    0.2603   54.8246 C.2     1  ZINC000010935976    0.0900
      7 N7         -9.7698    0.2345   56.0105 N.2     1  ZINC000010935976   -0.4900
      8 C8         -9.4850    1.0891   56.9636 C.2     1  ZINC000010935976    0.3400
      9 S9        -10.3606    0.9984   58.4899 S.3     1  ZINC000010935976    0.0500
     10 C10       -11.0958   -0.6481   58.3332 C.3     1  ZINC000010935976   -0.1000
     11 H11       -11.7564   -0.6732   57.4665 H       1  ZINC000010935976    0.1400
     12 C12       -11.8933   -0.9777   59.5973 C.3     1  ZINC000010935976   -0.1000
     13 C13       -11.2251   -0.3845   60.8244 C.3     1  ZINC000010935976   -0.1300
     14 C14        -9.8814   -1.0092   61.1529 C.3     1  ZINC000010935976   -0.1400
     15 C15        -8.8490   -0.6811   60.0726 C.3     1  ZINC000010935976    0.0700
     16 N16        -8.9542   -1.6840   59.0003 N.am    1  ZINC000010935976   -0.7200
     17 C17       -10.0006   -1.6808   58.1681 C.2     1  ZINC000010935976    0.5400
     18 O18       -10.0735   -2.5092   57.2854 O.2     1  ZINC000010935976   -0.5200
     19 N19        -8.5261    2.0468   56.8016 N.am    1  ZINC000010935976   -0.5100
     20 C20        -8.2379    2.9821   57.8917 C.3     1  ZINC000010935976    0.1200
     21 C21        -6.8914    2.6235   58.5537 C.3     1  ZINC000010935976   -0.1300
     22 C22        -5.8653    3.5475   57.8520 C.3     1  ZINC000010935976   -0.1300
     23 C23        -6.6561    4.8681   57.6799 C.3     1  ZINC000010935976   -0.1100
     24 C24        -8.0883    4.4092   57.3361 C.3     1  ZINC000010935976   -0.1200
     25 C25        -7.8428    2.1352   55.6440 C.2     1  ZINC000010935976    0.5600
     26 O26        -6.9856    2.9889   55.4939 O.2     1  ZINC000010935976   -0.5000
     27 S27        -9.3193   -0.7485   53.3962 S.3     1  ZINC000010935976    0.2100
     28 H28        -8.2016   -1.0374   50.7467 H       1  ZINC000010935976    0.0700
     29 H29        -7.7858    0.6743   50.4913 H       1  ZINC000010935976    0.0800
     30 H30        -6.5645   -0.4526   51.1290 H       1  ZINC000010935976    0.0800
     31 H31        -6.9158    2.8724   52.2861 H       1  ZINC000010935976    0.0700
     32 H32        -5.8620    2.3355   53.6163 H       1  ZINC000010935976    0.0800
     33 H33        -5.8440    1.4692   52.0614 H       1  ZINC000010935976    0.0700
     34 H34       -12.8995   -0.5691   59.5037 H       1  ZINC000010935976    0.0900
     35 H35       -11.9554   -2.0601   59.7105 H       1  ZINC000010935976    0.0900
     36 H36       -11.0816    0.6834   60.6603 H       1  ZINC000010935976    0.0700
     37 H37       -11.8882   -0.5160   61.6795 H       1  ZINC000010935976    0.0800
     38 H38        -9.5320   -0.6247   62.1110 H       1  ZINC000010935976    0.0800
     39 H39        -9.9964   -2.0909   61.2220 H       1  ZINC000010935976    0.0700
     40 H40        -9.0472    0.3108   59.6664 H       1  ZINC000010935976    0.1100
     41 H41        -7.8479   -0.7094   60.5028 H       1  ZINC000010935976    0.0900
     42 H42        -8.2581   -2.3513   58.8946 H       1  ZINC000010935976    0.4000
     43 H43        -9.0382    2.9513   58.6312 H       1  ZINC000010935976    0.1000
     44 H44        -6.9244    2.8326   59.6229 H       1  ZINC000010935976    0.0800
     45 H45        -6.6459    1.5765   58.3761 H       1  ZINC000010935976    0.0700
     46 H46        -4.9895    3.7012   58.4826 H       1  ZINC000010935976    0.0600
     47 H47        -5.5781    3.1401   56.8828 H       1  ZINC000010935976    0.1100
     48 H48        -6.6511    5.4396   58.6080 H       1  ZINC000010935976    0.0600
     49 H49        -6.2390    5.4591   56.8646 H       1  ZINC000010935976    0.0700
     50 H50        -8.2301    4.4059   56.2555 H       1  ZINC000010935976    0.0800
     51 H51        -8.8155    5.0711   57.8065 H       1  ZINC000010935976    0.0700
@<TRIPOS>BOND
     1     1     2    1
     2     1    28    1
     3     1    29    1
     4     1    30    1
     5     2    27    1
     6     2     3    2
     7     3     4    1
     8     3     5    1
     9     4    31    1
    10     4    32    1
    11     4    33    1
    12     5    25    1
    13     5     6    2
    14     6     7    1
    15     6    27    1
    16     7     8    2
    17     8     9    1
    18     8    19    1
    19     9    10    1
    20    10    11    1
    21    10    17    1
    22    10    12    1
    23    12    13    1
    24    12    34    1
    25    12    35    1
    26    13    14    1
    27    13    36    1
    28    13    37    1
    29    14    15    1
    30    14    38    1
    31    14    39    1
    32    15    16    1
    33    15    40    1
    34    15    41    1
    35    16    17   am
    36    16    42    1
    37    17    18    2
    38    19    20    1
    39    19    25   am
    40    20    24    1
    41    20    21    1
    42    20    43    1
    43    21    22    1
    44    21    44    1
    45    21    45    1
    46    22    23    1
    47    22    46    1
    48    22    47    1
    49    23    24    1
    50    23    48    1
    51    23    49    1
    52    24    50    1
    53    24    51    1
    54    25    26    2
@<TRIPOS>SUBSTRUCTURE
     1 ZINC000010935976        1 TEMP              0 ****  ****    0 ROOT


##########                                Name:    ZINC000915315870
##########                DOCK_Rotatable_Bonds:                   4
##########                         Heavy_Atoms:                  24
##########                    Molecular_Weight:             357.381
##########                DOCK_Rotatable_Bonds:                   4
##########                       Formal_Charge:           0.0300002
##########                     HBond_Acceptors:                   9
##########                        HBond_Donors:                   1
##########                         Heavy_Atoms:                  24
##########                          Grid_Score:          -26.380171
##########                     Grid_vdw_energy:          -25.923882
##########                      Grid_es_energy:           -0.456290
##########           Internal_energy_repulsive:           35.091408

@<TRIPOS>MOLECULE
ZINC000915315870
 41 43 1 0 0
SMALL
USER_CHARGES


@<TRIPOS>ATOM
      1 C1         -5.5299    2.3654   50.0074 C.3     1  ZINC000915315870    0.0300
      2 O2         -6.7551    2.9440   50.4616 O.3     1  ZINC000915315870   -0.3200
      3 C3         -7.5596    2.1618   51.2303 C.ar    1  ZINC000915315870    0.0800
      4 C4         -7.1665    0.8716   51.5598 C.ar    1  ZINC000915315870    0.0900
      5 F5         -5.9836    0.3914   51.1176 F       1  ZINC000915315870   -0.1100
      6 C6         -7.9872    0.0784   52.3421 C.ar    1  ZINC000915315870   -0.0500
      7 C7         -9.1978    0.5690   52.7949 C.ar    1  ZINC000915315870   -0.6300
      8 S8        -10.2403   -0.4445   53.7902 S.o2    1  ZINC000915315870    2.7000
      9 O9        -11.5560   -0.2948   53.2749 O.2     1  ZINC000915315870   -0.9400
     10 O10        -9.5881   -1.7019   53.9031 O.2     1  ZINC000915315870   -0.9400
     11 N11       -10.2559    0.2123   55.3103 N.am    1  ZINC000915315870   -1.1100
     12 C12        -9.0067    0.3442   56.0642 C.3     1  ZINC000915315870    0.2400
     13 H13        -8.1887   -0.1062   55.5021 H       1  ZINC000915315870    0.0900
     14 C14        -8.7074    1.8277   56.3145 C.3     1  ZINC000915315870   -0.1400
     15 C15        -7.5456    1.9606   57.3015 C.3     1  ZINC000915315870   -0.1100
     16 C16        -8.0105    1.5577   58.7065 C.3     1  ZINC000915315870   -0.0400
     17 C17        -8.6925    0.2145   58.6104 C.2     1  ZINC000915315870    0.0900
     18 N18        -8.9677   -0.6205   59.5698 N.2     1  ZINC000915315870   -0.2900
     19 N19        -9.6024   -1.7382   59.0070 N.pl3   1  ZINC000915315870   -0.3800
     20 C20       -10.0801   -2.9154   59.7366 C.3     1  ZINC000915315870    0.1000
     21 C21        -9.6963   -1.5375   57.6733 C.2     1  ZINC000915315870    0.0800
     22 C22        -9.1442   -0.3416   57.4011 C.2     1  ZINC000915315870   -0.2500
     23 C23        -9.5919    1.8535   52.4690 C.ar    1  ZINC000915315870   -0.0500
     24 C24        -8.7731    2.6538   51.6919 C.ar    1  ZINC000915315870    0.1000
     25 F25        -9.1588    3.9088   51.3737 F       1  ZINC000915315870   -0.1100
     26 H26        -4.9851    3.0936   49.4065 H       1  ZINC000915315870    0.1100
     27 H27        -4.9239    2.0771   50.8663 H       1  ZINC000915315870    0.0600
     28 H28        -5.7461    1.4845   49.4030 H       1  ZINC000915315870    0.0500
     29 H29        -7.6819   -0.9253   52.5987 H       1  ZINC000915315870    0.1700
     30 H30       -11.0922    0.5097   55.7016 H       1  ZINC000915315870    0.4200
     31 H31        -8.4401    2.3075   55.3730 H       1  ZINC000915315870    0.0900
     32 H32        -9.5922    2.3112   56.7286 H       1  ZINC000915315870    0.0800
     33 H33        -6.7287    1.3099   56.9895 H       1  ZINC000915315870    0.0700
     34 H34        -7.1993    2.9940   57.3168 H       1  ZINC000915315870    0.0800
     35 H35        -7.1503    1.4866   59.3721 H       1  ZINC000915315870    0.0800
     36 H36        -8.7116    2.2996   59.0886 H       1  ZINC000915315870    0.0900
     37 H37       -11.1117   -2.7549   60.0496 H       1  ZINC000915315870    0.0800
     38 H38       -10.0291   -3.7901   59.0881 H       1  ZINC000915315870    0.0900
     39 H39        -9.4549   -3.0770   60.6147 H       1  ZINC000915315870    0.0900
     40 H40       -10.1353   -2.2151   56.9558 H       1  ZINC000915315870    0.1700
     41 H41       -10.5379    2.2341   52.8245 H       1  ZINC000915315870    0.1700
@<TRIPOS>BOND
     1     1     2    1
     2     1    26    1
     3     1    27    1
     4     1    28    1
     5     2     3    1
     6     3    24   ar
     7     3     4   ar
     8     4     5    1
     9     4     6   ar
    10     6     7   ar
    11     6    29    1
    12     7     8    1
    13     7    23   ar
    14     8     9    2
    15     8    10    2
    16     8    11   am
    17    11    12    1
    18    11    30    1
    19    12    13    1
    20    12    22    1
    21    12    14    1
    22    14    15    1
    23    14    31    1
    24    14    32    1
    25    15    16    1
    26    15    33    1
    27    15    34    1
    28    16    17    1
    29    16    35    1
    30    16    36    1
    31    17    22    1
    32    17    18    2
    33    18    19    1
    34    19    20    1
    35    19    21    1
    36    20    37    1
    37    20    38    1
    38    20    39    1
    39    21    22    2
    40    21    40    1
    41    23    24   ar
    42    23    41    1
    43    24    25    1
@<TRIPOS>SUBSTRUCTURE
     1 ZINC000915315870        1 TEMP              0 ****  ****    0 ROOT


##########                                Name:    ZINC000965273005
##########                DOCK_Rotatable_Bonds:                   7
##########                         Heavy_Atoms:                  27
##########                    Molecular_Weight:             368.436
##########                DOCK_Rotatable_Bonds:                   7
##########                       Formal_Charge:           0.0100003
##########                     HBond_Acceptors:                   7
##########                        HBond_Donors:                   2
##########                         Heavy_Atoms:                  27
##########                          Grid_Score:          -26.294455
##########                     Grid_vdw_energy:          -26.805058
##########                      Grid_es_energy:            0.510602
##########           Internal_energy_repulsive:           11.281816

@<TRIPOS>MOLECULE
ZINC000965273005
 51 54 1 0 0
SMALL
USER_CHARGES


@<TRIPOS>ATOM
      1 C1        -10.8174   -0.5171   51.9953 C.3     1  ZINC000965273005   -0.1200
      2 C2         -9.6936   -0.0259   52.8709 C.ar    1  ZINC000965273005   -0.0300
      3 C3         -8.4621    0.2604   52.3194 C.ar    1  ZINC000965273005   -0.1200
      4 C4         -7.4291    0.7115   53.1221 C.ar    1  ZINC000965273005   -0.0900
      5 C5         -7.6237    0.8790   54.4814 C.ar    1  ZINC000965273005   -0.1300
      6 C6         -8.8507    0.5963   55.0458 C.ar    1  ZINC000965273005   -0.0900
      7 C7         -9.8982    0.1460   54.2411 C.ar    1  ZINC000965273005   -0.1300
      8 C8        -11.2155   -0.1590   54.8390 C.2     1  ZINC000965273005    0.5800
      9 O9        -12.1924    0.4906   54.5208 O.2     1  ZINC000965273005   -0.5200
     10 N10       -11.3332   -1.1571   55.7369 N.am    1  ZINC000965273005   -0.6100
     11 C11       -10.2348   -2.0163   56.2154 C.3     1  ZINC000965273005    0.0900
     12 C12       -10.7045   -2.5257   57.6008 C.3     1  ZINC000965273005    0.1500
     13 H13       -10.2213   -3.4693   57.8545 H       1  ZINC000965273005    0.1200
     14 N14       -10.4645   -1.5204   58.6391 N.am    1  ZINC000965273005   -0.7100
     15 C15        -9.3274   -1.5561   59.3616 C.2     1  ZINC000965273005    0.6000
     16 O16        -8.5012   -2.4237   59.1528 O.2     1  ZINC000965273005   -0.5400
     17 C17        -9.0851   -0.5434   60.4052 C.2     1  ZINC000965273005   -0.2800
     18 C18        -9.2315   -0.7185   61.7666 C.2     1  ZINC000965273005    0.1000
     19 N19        -8.9125    0.4439   62.3579 N.pl3   1  ZINC000965273005   -0.3600
     20 C20        -8.9293    0.7040   63.7996 C.3     1  ZINC000965273005    0.1000
     21 N21        -8.5605    1.3650   61.3650 N.2     1  ZINC000965273005   -0.3000
     22 C22        -8.6539    0.7863   60.1996 C.2     1  ZINC000965273005    0.1700
     23 C23        -8.3628    1.4268   58.8670 C.3     1  ZINC000965273005   -0.0800
     24 C24        -9.3050    2.5364   58.3957 C.3     1  ZINC000965273005   -0.1700
     25 C25        -7.8924    2.8827   58.8706 C.3     1  ZINC000965273005   -0.1600
     26 C26       -12.2242   -2.7261   57.3601 C.3     1  ZINC000965273005    0.0900
     27 H27       -12.4162   -3.6898   56.8883 H       1  ZINC000965273005    0.0900
     28 O28       -12.9496   -2.6119   58.5860 O.3     1  ZINC000965273005   -0.5500
     29 C29       -12.5769   -1.5655   56.4062 C.3     1  ZINC000965273005    0.0600
     30 H30       -11.4405    0.3259   51.6968 H       1  ZINC000965273005    0.0800
     31 H31       -10.4038   -0.9956   51.1076 H       1  ZINC000965273005    0.0700
     32 H32       -11.4207   -1.2371   52.5483 H       1  ZINC000965273005    0.0700
     33 H33        -8.3037    0.1318   51.2588 H       1  ZINC000965273005    0.1300
     34 H34        -6.4667    0.9336   52.6853 H       1  ZINC000965273005    0.1300
     35 H35        -6.8134    1.2315   55.1023 H       1  ZINC000965273005    0.1300
     36 H36        -9.0012    0.7271   56.1072 H       1  ZINC000965273005    0.1300
     37 H37       -10.0839   -2.8538   55.5343 H       1  ZINC000965273005    0.0900
     38 H38        -9.3165   -1.4375   56.3154 H       1  ZINC000965273005    0.0900
     39 H39       -11.1241   -0.8291   58.8065 H       1  ZINC000965273005    0.4000
     40 H40        -9.5456   -1.6239   62.2646 H       1  ZINC000965273005    0.1800
     41 H41        -7.9536    0.4658   64.2232 H       1  ZINC000965273005    0.0800
     42 H42        -9.1554    1.7555   63.9765 H       1  ZINC000965273005    0.1000
     43 H43        -9.6915    0.0841   64.2716 H       1  ZINC000965273005    0.0900
     44 H44        -7.9451    0.7649   58.1084 H       1  ZINC000965273005    0.1400
     45 H45        -9.5075    2.6045   57.3268 H       1  ZINC000965273005    0.1000
     46 H46       -10.1353    2.8031   59.0496 H       1  ZINC000965273005    0.1000
     47 H47        -7.7934    3.3772   59.8368 H       1  ZINC000965273005    0.0900
     48 H48        -7.1656    3.1786   58.1141 H       1  ZINC000965273005    0.1000
     49 H49       -13.8867   -2.8384   58.5110 H       1  ZINC000965273005    0.3900
     50 H50       -12.9892   -0.7314   56.9739 H       1  ZINC000965273005    0.0800
     51 H51       -13.2986   -1.9033   55.6624 H       1  ZINC000965273005    0.0800
@<TRIPOS>BOND
     1     1     2    1
     2     1    30    1
     3     1    31    1
     4     1    32    1
     5     2     7   ar
     6     2     3   ar
     7     3     4   ar
     8     3    33    1
     9     4     5   ar
    10     4    34    1
    11     5     6   ar
    12     5    35    1
    13     6     7   ar
    14     6    36    1
    15     7     8    1
    16     8     9    2
    17     8    10   am
    18    10    29    1
    19    10    11    1
    20    11    12    1
    21    11    37    1
    22    11    38    1
    23    12    13    1
    24    12    14    1
    25    12    26    1
    26    14    15   am
    27    14    39    1
    28    15    16    2
    29    15    17    1
    30    17    22    1
    31    17    18    2
    32    18    19    1
    33    18    40    1
    34    19    20    1
    35    19    21    1
    36    20    41    1
    37    20    42    1
    38    20    43    1
    39    21    22    2
    40    22    23    1
    41    23    25    1
    42    23    24    1
    43    23    44    1
    44    24    25    1
    45    24    45    1
    46    24    46    1
    47    25    47    1
    48    25    48    1
    49    26    27    1
    50    26    28    1
    51    26    29    1
    52    28    49    1
    53    29    50    1
    54    29    51    1
@<TRIPOS>SUBSTRUCTURE
     1 ZINC000965273005        1 TEMP              0 ****  ****    0 ROOT


##########                                Name:    ZINC001018118384
##########                DOCK_Rotatable_Bonds:                   5
##########                         Heavy_Atoms:                  25
##########                    Molecular_Weight:             347.374
##########                DOCK_Rotatable_Bonds:                   5
##########                       Formal_Charge:           0.0299997
##########                     HBond_Acceptors:                   9
##########                        HBond_Donors:                   2
##########                         Heavy_Atoms:                  25
##########                          Grid_Score:          -26.198824
##########                     Grid_vdw_energy:          -25.114353
##########                      Grid_es_energy:           -1.084471
##########           Internal_energy_repulsive:           96.813904

@<TRIPOS>MOLECULE
ZINC001018118384
 46 48 1 0 0
SMALL
USER_CHARGES


@<TRIPOS>ATOM
      1 C1         -6.3480    2.6430   58.0154 C.3     1  ZINC001018118384   -0.0700
      2 C2         -7.1634    1.6188   58.7619 C.2     1  ZINC001018118384    0.2200
      3 N3         -7.6766    0.5394   58.2462 N.2     1  ZINC001018118384   -0.4600
      4 C4         -8.3422   -0.1373   59.2168 C.2     1  ZINC001018118384   -0.0700
      5 C5         -9.0648   -1.4105   59.0518 C.2     1  ZINC001018118384    0.6100
      6 O6         -8.4716   -2.4659   59.1676 O.2     1  ZINC001018118384   -0.5400
      7 N7        -10.3833   -1.4056   58.7723 N.am    1  ZINC001018118384   -0.5900
      8 C8        -11.1123   -0.1387   58.6235 C.3     1  ZINC001018118384    0.0700
      9 C9        -11.8405   -0.1443   57.2757 C.3     1  ZINC001018118384    0.1300
     10 H10       -12.4619    0.7475   57.1943 H       1  ZINC001018118384    0.1100
     11 N11       -10.8579   -0.1565   56.1891 N.am    1  ZINC001018118384   -0.7000
     12 C12       -10.4104    1.0049   55.6722 C.2     1  ZINC001018118384    0.6000
     13 O13       -10.8229    2.0620   56.1062 O.2     1  ZINC001018118384   -0.4900
     14 C14        -9.4150    0.9926   54.5741 C.2     1  ZINC001018118384    0.0300
     15 C15        -8.5263    1.9826   54.2771 C.2     1  ZINC001018118384   -0.2300
     16 C16        -7.8124    1.4790   53.1534 C.2     1  ZINC001018118384    0.4800
     17 O17        -6.9109    2.0318   52.5454 O.2     1  ZINC001018118384   -0.5200
     18 N18        -8.3391    0.2638   52.9011 N.am    1  ZINC001018118384   -0.4500
     19 C19        -7.9023   -0.6234   51.8202 C.3     1  ZINC001018118384    0.1100
     20 O20        -9.2167    0.0024   53.6908 O.3     1  ZINC001018118384    0.0000
     21 C21       -12.7223   -1.3916   57.1819 C.3     1  ZINC001018118384   -0.1300
     22 C22       -11.8470   -2.6444   57.2633 C.3     1  ZINC001018118384   -0.1300
     23 C23       -11.1177   -2.6671   58.6049 C.3     1  ZINC001018118384    0.1400
     24 H24       -11.8419   -2.7716   59.4128 H       1  ZINC001018118384    0.0700
     25 C25       -10.1400   -3.8436   58.6374 C.3     1  ZINC001018118384   -0.1400
     26 C26        -8.2196    0.5762   60.3732 C.2     1  ZINC001018118384    0.0400
     27 N27        -7.4764    1.6700   60.0829 N.pl3   1  ZINC001018118384   -0.5600
     28 H28        -5.2937    2.3699   58.0589 H       1  ZINC001018118384    0.0900
     29 H29        -6.6718    2.6773   56.9752 H       1  ZINC001018118384    0.1000
     30 H30        -6.4887    3.6225   58.4724 H       1  ZINC001018118384    0.0800
     31 H31       -11.8380   -0.0376   59.4305 H       1  ZINC001018118384    0.0800
     32 H32       -10.4090    0.6935   58.6554 H       1  ZINC001018118384    0.1500
     33 H33       -10.5294   -1.0005   55.8418 H       1  ZINC001018118384    0.4100
     34 H34        -8.3946    2.9301   54.7783 H       1  ZINC001018118384    0.1900
     35 H35        -7.1054   -1.2727   52.1827 H       1  ZINC001018118384    0.0800
     36 H36        -8.7433   -1.2315   51.4870 H       1  ZINC001018118384    0.0900
     37 H37        -7.5332   -0.0259   50.9866 H       1  ZINC001018118384    0.1100
     38 H38       -13.4368   -1.3938   58.0050 H       1  ZINC001018118384    0.0900
     39 H39       -13.2604   -1.3854   56.2341 H       1  ZINC001018118384    0.0800
     40 H40       -12.4731   -3.5321   57.1730 H       1  ZINC001018118384    0.0800
     41 H41       -11.1160   -2.6306   56.4550 H       1  ZINC001018118384    0.0600
     42 H42        -9.4259   -3.7451   57.8198 H       1  ZINC001018118384    0.0700
     43 H43        -9.6062   -3.8462   59.5877 H       1  ZINC001018118384    0.0800
     44 H44       -10.6914   -4.7774   58.5277 H       1  ZINC001018118384    0.0400
     45 H45        -8.6323    0.3160   61.3366 H       1  ZINC001018118384    0.1900
     46 H46        -7.2193    2.3683   60.7050 H       1  ZINC001018118384    0.4300
@<TRIPOS>BOND
     1     1     2    1
     2     1    28    1
     3     1    29    1
     4     1    30    1
     5     2    27    1
     6     2     3    2
     7     3     4    1
     8     4     5    1
     9     4    26    2
    10     5     6    2
    11     5     7   am
    12     7    23    1
    13     7     8    1
    14     8     9    1
    15     8    31    1
    16     8    32    1
    17     9    10    1
    18     9    11    1
    19     9    21    1
    20    11    12   am
    21    11    33    1
    22    12    13    2
    23    12    14    1
    24    14    20    1
    25    14    15    2
    26    15    16    1
    27    15    34    1
    28    16    17    2
    29    16    18   am
    30    18    19    1
    31    18    20    1
    32    19    35    1
    33    19    36    1
    34    19    37    1
    35    21    22    1
    36    21    38    1
    37    21    39    1
    38    22    23    1
    39    22    40    1
    40    22    41    1
    41    23    24    1
    42    23    25    1
    43    25    42    1
    44    25    43    1
    45    25    44    1
    46    26    27    1
    47    26    45    1
    48    27    46    1
@<TRIPOS>SUBSTRUCTURE
     1 ZINC001018118384        1 TEMP              0 ****  ****    0 ROOT


##########                                Name:    ZINC000463474628
##########                DOCK_Rotatable_Bonds:                   5
##########                         Heavy_Atoms:                  25
##########                    Molecular_Weight:              407.35
##########                DOCK_Rotatable_Bonds:                   5
##########                       Formal_Charge:           0.0200004
##########                     HBond_Acceptors:                   4
##########                        HBond_Donors:                   0
##########                         Heavy_Atoms:                  25
##########                          Grid_Score:          -26.198610
##########                     Grid_vdw_energy:          -26.299660
##########                      Grid_es_energy:            0.101050
##########           Internal_energy_repulsive:           26.048002

@<TRIPOS>MOLECULE
ZINC000463474628
 52 54 1 0 0
SMALL
USER_CHARGES


@<TRIPOS>ATOM
      1 C1         -7.1611    4.8536   51.0555 C.3     1  ZINC000463474628   -0.1400
      2 C2         -5.8609    4.2747   51.6172 C.3     1  ZINC000463474628   -0.1300
      3 C3         -5.9290    2.7465   51.5889 C.3     1  ZINC000463474628    0.1400
      4 H4         -5.0129    2.3271   52.0046 H       1  ZINC000463474628    0.0800
      5 C5         -6.1195    2.2565   50.1380 C.3     1  ZINC000463474628   -0.1300
      6 C6         -7.0974    1.0629   50.3000 C.3     1  ZINC000463474628   -0.1300
      7 C7         -8.0000    1.5552   51.4587 C.3     1  ZINC000463474628    0.0900
      8 N8         -7.0884    2.2831   52.3654 N.am    1  ZINC000463474628   -0.6100
      9 C9         -7.2888    2.4884   53.6821 C.2     1  ZINC000463474628    0.5300
     10 O10        -6.4694    3.1029   54.3318 O.2     1  ZINC000463474628   -0.5100
     11 C11        -8.5311    1.9544   54.3474 C.3     1  ZINC000463474628   -0.1200
     12 H12        -9.3686    2.0097   53.6520 H       1  ZINC000463474628    0.1000
     13 C13        -8.8439    2.7898   55.5910 C.3     1  ZINC000463474628   -0.1000
     14 C14       -10.1236    2.2690   56.2489 C.3     1  ZINC000463474628   -0.1300
     15 C15        -9.9143    0.8149   56.6835 C.3     1  ZINC000463474628    0.0900
     16 N16        -9.4722    0.0329   55.5208 N.am    1  ZINC000463474628   -0.6000
     17 C17       -10.1261   -1.0886   55.1587 C.2     1  ZINC000463474628    0.5700
     18 O18        -9.7504   -1.7267   54.1946 O.2     1  ZINC000463474628   -0.5200
     19 C19       -11.2999   -1.5425   55.9336 C.ar    1  ZINC000463474628   -0.1200
     20 C20       -11.1309   -2.3909   57.0291 C.ar    1  ZINC000463474628   -0.0800
     21 C21       -12.2302   -2.8112   57.7483 C.ar    1  ZINC000463474628   -0.1000
     22 C22       -13.4994   -2.3933   57.3855 C.ar    1  ZINC000463474628   -0.0700
     23 Br23      -15.0011   -2.9736   58.3774 Br      1  ZINC000463474628   -0.0400
     24 C24       -13.6735   -1.5516   56.2996 C.ar    1  ZINC000463474628   -0.0900
     25 C25       -12.5818   -1.1200   55.5762 C.ar    1  ZINC000463474628   -0.0300
     26 C26       -12.7729   -0.2042   54.3948 C.3     1  ZINC000463474628   -0.1300
     27 C27        -8.3040    0.4966   54.7596 C.3     1  ZINC000463474628    0.1200
     28 H28        -7.1078    4.8774   49.9672 H       1  ZINC000463474628    0.0700
     29 H29        -7.9998    4.2300   51.3647 H       1  ZINC000463474628    0.0600
     30 H30        -7.3017    5.8658   51.4346 H       1  ZINC000463474628    0.0300
     31 H31        -5.0209    4.6124   51.0103 H       1  ZINC000463474628    0.0600
     32 H32        -5.7263    4.6134   52.6444 H       1  ZINC000463474628    0.0700
     33 H33        -6.5640    3.0383   49.5221 H       1  ZINC000463474628    0.0800
     34 H34        -5.1713    1.9237   49.7157 H       1  ZINC000463474628    0.0800
     35 H35        -7.6786    0.9077   49.3909 H       1  ZINC000463474628    0.0900
     36 H36        -6.5629    0.1550   50.5797 H       1  ZINC000463474628    0.0800
     37 H37        -8.7732    2.2232   51.0797 H       1  ZINC000463474628    0.0700
     38 H38        -8.4497    0.7075   51.9757 H       1  ZINC000463474628    0.0800
     39 H39        -8.0164    2.7147   56.2964 H       1  ZINC000463474628    0.0800
     40 H40        -8.9819    3.8320   55.3031 H       1  ZINC000463474628    0.0700
     41 H41       -10.3586    2.8790   57.1212 H       1  ZINC000463474628    0.0800
     42 H42       -10.9464    2.3207   55.5358 H       1  ZINC000463474628    0.0700
     43 H43        -9.1537    0.7723   57.4630 H       1  ZINC000463474628    0.0800
     44 H44       -10.8520    0.4080   57.0622 H       1  ZINC000463474628    0.1000
     45 H45       -10.1414   -2.7178   57.3127 H       1  ZINC000463474628    0.1400
     46 H46       -12.1008   -3.4678   58.5959 H       1  ZINC000463474628    0.1400
     47 H47       -14.6660   -1.2293   56.0212 H       1  ZINC000463474628    0.1400
     48 H48       -12.6384    0.8301   54.7112 H       1  ZINC000463474628    0.0700
     49 H49       -12.0406   -0.4468   53.6248 H       1  ZINC000463474628    0.0900
     50 H50       -13.7783   -0.3335   53.9937 H       1  ZINC000463474628    0.0700
     51 H51        -8.1793   -0.1204   53.8697 H       1  ZINC000463474628    0.1000
     52 H52        -7.4118    0.4284   55.3821 H       1  ZINC000463474628    0.0800
@<TRIPOS>BOND
     1     1     2    1
     2     1    28    1
     3     1    29    1
     4     1    30    1
     5     2     3    1
     6     2    31    1
     7     2    32    1
     8     3     4    1
     9     3     8    1
    10     3     5    1
    11     5     6    1
    12     5    33    1
    13     5    34    1
    14     6     7    1
    15     6    35    1
    16     6    36    1
    17     7     8    1
    18     7    37    1
    19     7    38    1
    20     8     9   am
    21     9    10    2
    22     9    11    1
    23    11    12    1
    24    11    27    1
    25    11    13    1
    26    13    14    1
    27    13    39    1
    28    13    40    1
    29    14    15    1
    30    14    41    1
    31    14    42    1
    32    15    16    1
    33    15    43    1
    34    15    44    1
    35    16    17   am
    36    16    27    1
    37    17    18    2
    38    17    19    1
    39    19    25   ar
    40    19    20   ar
    41    20    21   ar
    42    20    45    1
    43    21    22   ar
    44    21    46    1
    45    22    23    1
    46    22    24   ar
    47    24    25   ar
    48    24    47    1
    49    25    26    1
    50    26    48    1
    51    26    49    1
    52    26    50    1
    53    27    51    1
    54    27    52    1
@<TRIPOS>SUBSTRUCTURE
     1 ZINC000463474628        1 TEMP              0 ****  ****    0 ROOT


##########                                Name:    ZINC001010141213
##########                DOCK_Rotatable_Bonds:                   4
##########                         Heavy_Atoms:                  24
##########                    Molecular_Weight:             330.346
##########                DOCK_Rotatable_Bonds:                   4
##########                       Formal_Charge:          -0.0100003
##########                     HBond_Acceptors:                   9
##########                        HBond_Donors:                   1
##########                         Heavy_Atoms:                  24
##########                          Grid_Score:          -26.184824
##########                     Grid_vdw_energy:          -25.395336
##########                      Grid_es_energy:           -0.789488
##########           Internal_energy_repulsive:           14.943850

@<TRIPOS>MOLECULE
ZINC001010141213
 42 44 1 0 0
SMALL
USER_CHARGES


@<TRIPOS>ATOM
      1 C1         -9.9125   -2.9558   58.8322 C.3     1  ZINC001010141213   -0.0800
      2 C2        -10.4711   -1.6718   59.3893 C.2     1  ZINC001010141213   -0.1500
      3 C3        -10.0809   -0.3814   59.0761 C.2     1  ZINC001010141213   -0.0400
      4 C4         -9.0300    0.0176   58.1263 C.2     1  ZINC001010141213    0.6000
      5 O5         -7.8602   -0.0385   58.4546 O.2     1  ZINC001010141213   -0.5100
      6 N6         -9.3637    0.4452   56.8925 N.am    1  ZINC001010141213   -0.6100
      7 C7         -8.3247    0.8410   55.9315 C.3     1  ZINC001010141213    0.0900
      8 C8         -8.5085    0.0238   54.6467 C.3     1  ZINC001010141213    0.0700
      9 N9         -9.9180    0.1021   54.2380 N.am    1  ZINC001010141213   -0.6000
     10 C10       -10.2517    0.5287   53.0039 C.2     1  ZINC001010141213    0.5900
     11 O11       -11.4210    0.5892   52.6773 O.2     1  ZINC001010141213   -0.5200
     12 C12        -9.1953    0.9231   52.0471 C.2     1  ZINC001010141213    0.0300
     13 N13        -8.4658    0.0012   51.4602 N.2     1  ZINC001010141213   -0.1800
     14 N14        -7.5373    0.2922   50.6227 N.am    1  ZINC001010141213   -0.4400
     15 C15        -7.2531    1.5659   50.2930 C.2     1  ZINC001010141213    0.4800
     16 O16        -6.3647    1.8097   49.4934 O.2     1  ZINC001010141213   -0.5100
     17 C17        -7.9907    2.6185   50.8792 C.2     1  ZINC001010141213   -0.1800
     18 C18        -8.9771    2.2927   51.7621 C.2     1  ZINC001010141213   -0.0400
     19 C19       -10.9572   -0.2937   55.1990 C.3     1  ZINC001010141213    0.1000
     20 C20       -10.7730    0.5182   56.4819 C.3     1  ZINC001010141213    0.1000
     21 N21       -10.8667    0.4477   59.8252 N.pl3   1  ZINC001010141213   -0.2700
     22 C22       -10.8007    1.9111   59.8144 C.3     1  ZINC001010141213    0.0900
     23 N23       -11.6728   -0.2518   60.5400 N.2     1  ZINC001010141213   -0.2800
     24 C24       -11.4967   -1.5308   60.3268 C.2     1  ZINC001010141213    0.0100
     25 H25       -10.4690   -3.2363   57.9379 H       1  ZINC001010141213    0.0700
     26 H26        -8.8622   -2.8147   58.5772 H       1  ZINC001010141213    0.0600
     27 H27       -10.0023   -3.7450   59.5786 H       1  ZINC001010141213    0.0700
     28 H28        -8.4202    1.9032   55.7062 H       1  ZINC001010141213    0.0800
     29 H29        -7.3401    0.6412   56.3543 H       1  ZINC001010141213    0.1000
     30 H30        -7.8760    0.4332   53.8590 H       1  ZINC001010141213    0.1400
     31 H31        -8.2387   -1.0158   54.8325 H       1  ZINC001010141213    0.0800
     32 H32        -7.0265   -0.4255   50.2165 H       1  ZINC001010141213    0.4500
     33 H33        -7.7828    3.6490   50.6320 H       1  ZINC001010141213    0.1700
     34 H34        -9.5705    3.0593   52.2378 H       1  ZINC001010141213    0.1700
     35 H35       -11.9417   -0.0939   54.7762 H       1  ZINC001010141213    0.1100
     36 H36       -10.8617   -1.3560   55.4243 H       1  ZINC001010141213    0.0800
     37 H37       -11.4061    0.1077   57.2686 H       1  ZINC001010141213    0.1100
     38 H38       -11.0416    1.5584   56.2982 H       1  ZINC001010141213    0.0800
     39 H39       -11.5410    2.3032   59.1171 H       1  ZINC001010141213    0.0900
     40 H40       -11.0068    2.2914   60.8150 H       1  ZINC001010141213    0.1000
     41 H41        -9.8051    2.2276   59.5035 H       1  ZINC001010141213    0.0900
     42 H42       -12.0428   -2.3349   60.7975 H       1  ZINC001010141213    0.1900
@<TRIPOS>BOND
     1     1     2    1
     2     1    25    1
     3     1    26    1
     4     1    27    1
     5     2    24    1
     6     2     3    2
     7     3     4    1
     8     3    21    1
     9     4     5    2
    10     4     6   am
    11     6    20    1
    12     6     7    1
    13     7     8    1
    14     7    28    1
    15     7    29    1
    16     8     9    1
    17     8    30    1
    18     8    31    1
    19     9    10   am
    20     9    19    1
    21    10    11    2
    22    10    12    1
    23    12    18    1
    24    12    13    2
    25    13    14    1
    26    14    15   am
    27    14    32    1
    28    15    16    2
    29    15    17    1
    30    17    18    2
    31    17    33    1
    32    18    34    1
    33    19    20    1
    34    19    35    1
    35    19    36    1
    36    20    37    1
    37    20    38    1
    38    21    22    1
    39    21    23    1
    40    22    39    1
    41    22    40    1
    42    22    41    1
    43    23    24    2
    44    24    42    1
@<TRIPOS>SUBSTRUCTURE
     1 ZINC001010141213        1 TEMP              0 ****  ****    0 ROOT


##########                                Name:    ZINC000341804698
##########                DOCK_Rotatable_Bonds:                   7
##########                         Heavy_Atoms:                  24
##########                    Molecular_Weight:             342.318
##########                DOCK_Rotatable_Bonds:                   7
##########                       Formal_Charge:                0.02
##########                     HBond_Acceptors:                   8
##########                        HBond_Donors:                   0
##########                         Heavy_Atoms:                  24
##########                          Grid_Score:          -26.094294
##########                     Grid_vdw_energy:          -26.047432
##########                      Grid_es_energy:           -0.046862
##########           Internal_energy_repulsive:           26.440090

@<TRIPOS>MOLECULE
ZINC000341804698
 41 42 1 0 0
SMALL
USER_CHARGES


@<TRIPOS>ATOM
      1 C1         -4.6436    2.3232   50.1413 C.3     1  ZINC000341804698    0.0300
      2 O2         -6.0652    2.2226   50.2460 O.3     1  ZINC000341804698   -0.3900
      3 C3         -6.5178    1.0281   50.8867 C.3     1  ZINC000341804698    0.0700
      4 C4         -7.4032    1.3935   52.0797 C.3     1  ZINC000341804698    0.0400
      5 C5         -6.9087    2.6359   52.6952 C.1     1  ZINC000341804698    0.2200
      6 N6         -6.5271    3.5946   53.1701 N.1     1  ZINC000341804698   -0.4200
      7 C7         -8.8426    1.5989   51.6024 C.3     1  ZINC000341804698   -0.1200
      8 C8         -9.7193    1.9983   52.7935 C.3     1  ZINC000341804698    0.1100
      9 N9         -9.5722    0.9869   53.8491 N.am    1  ZINC000341804698   -0.6000
     10 C10       -10.6551    0.3822   54.3764 C.2     1  ZINC000341804698    0.5700
     11 O11       -11.7667    0.6720   53.9792 O.2     1  ZINC000341804698   -0.5200
     12 C12       -10.4910   -0.6337   55.4380 C.ar    1  ZINC000341804698   -0.0900
     13 C13       -10.5626   -1.9919   55.1248 C.ar    1  ZINC000341804698   -0.1100
     14 C14       -10.4091   -2.9374   56.1182 C.ar    1  ZINC000341804698   -0.0800
     15 C15       -10.1844   -2.5440   57.4242 C.ar    1  ZINC000341804698   -0.1700
     16 C16       -10.1121   -1.1951   57.7456 C.ar    1  ZINC000341804698    0.1100
     17 O17        -9.8913   -0.8139   59.0313 O.3     1  ZINC000341804698   -0.3100
     18 C18        -9.5180   -1.8373   59.9564 C.3     1  ZINC000341804698    0.6000
     19 F19       -10.5918   -2.7152   60.1389 F       1  ZINC000341804698   -0.1600
     20 F20        -8.4194   -2.5423   59.4534 F       1  ZINC000341804698   -0.1300
     21 F21        -9.1775   -1.2559   61.1824 F       1  ZINC000341804698   -0.1600
     22 C22       -10.2584   -0.2382   56.7557 C.ar    1  ZINC000341804698   -0.0700
     23 C23        -8.2221    0.6468   54.3184 C.3     1  ZINC000341804698    0.0900
     24 C24        -7.3623    0.2626   53.1102 C.3     1  ZINC000341804698   -0.1200
     25 H25        -4.2037    2.3066   51.1384 H       1  ZINC000341804698    0.0400
     26 H26        -4.2616    1.4828   49.5617 H       1  ZINC000341804698    0.0500
     27 H27        -4.3811    3.2568   49.6438 H       1  ZINC000341804698    0.0900
     28 H28        -7.0912    0.4307   50.1780 H       1  ZINC000341804698    0.0700
     29 H29        -5.6586    0.4543   51.2340 H       1  ZINC000341804698    0.0600
     30 H30        -8.8676    2.3886   50.8515 H       1  ZINC000341804698    0.1000
     31 H31        -9.2180    0.6720   51.1689 H       1  ZINC000341804698    0.0900
     32 H32        -9.4014    2.9699   53.1717 H       1  ZINC000341804698    0.0700
     33 H33       -10.7617    2.0494   52.4791 H       1  ZINC000341804698    0.1100
     34 H34       -10.7384   -2.3027   54.1055 H       1  ZINC000341804698    0.1400
     35 H35       -10.4650   -3.9881   55.8746 H       1  ZINC000341804698    0.1400
     36 H36       -10.0650   -3.2883   58.1976 H       1  ZINC000341804698    0.1400
     37 H37       -10.2020    0.8113   57.0042 H       1  ZINC000341804698    0.1500
     38 H38        -7.7822    1.5082   54.8209 H       1  ZINC000341804698    0.0800
     39 H39        -8.2766   -0.1938   55.0101 H       1  ZINC000341804698    0.1100
     40 H40        -7.7516   -0.6517   52.6625 H       1  ZINC000341804698    0.1000
     41 H41        -6.3335    0.1011   53.4324 H       1  ZINC000341804698    0.0900
@<TRIPOS>BOND
     1     1     2    1
     2     1    25    1
     3     1    26    1
     4     1    27    1
     5     2     3    1
     6     3     4    1
     7     3    28    1
     8     3    29    1
     9     4    24    1
    10     4     5    1
    11     4     7    1
    12     5     6    3
    13     7     8    1
    14     7    30    1
    15     7    31    1
    16     8     9    1
    17     8    32    1
    18     8    33    1
    19     9    10   am
    20     9    23    1
    21    10    11    2
    22    10    12    1
    23    12    22   ar
    24    12    13   ar
    25    13    14   ar
    26    13    34    1
    27    14    15   ar
    28    14    35    1
    29    15    16   ar
    30    15    36    1
    31    16    17    1
    32    16    22   ar
    33    17    18    1
    34    18    19    1
    35    18    20    1
    36    18    21    1
    37    22    37    1
    38    23    24    1
    39    23    38    1
    40    23    39    1
    41    24    40    1
    42    24    41    1
@<TRIPOS>SUBSTRUCTURE
     1 ZINC000341804698        1 TEMP              0 ****  ****    0 ROOT


##########                                Name:    ZINC000330515179
##########                DOCK_Rotatable_Bonds:                   4
##########                         Heavy_Atoms:                  21
##########                    Molecular_Weight:             378.287
##########                DOCK_Rotatable_Bonds:                   4
##########                       Formal_Charge:           0.0200002
##########                     HBond_Acceptors:                   6
##########                        HBond_Donors:                   0
##########                         Heavy_Atoms:                  21
##########                          Grid_Score:          -26.042852
##########                     Grid_vdw_energy:          -25.017580
##########                      Grid_es_energy:           -1.025273
##########           Internal_energy_repulsive:            7.476803

@<TRIPOS>MOLECULE
ZINC000330515179
 41 42 1 0 0
SMALL
USER_CHARGES


@<TRIPOS>ATOM
      1 C1        -15.3944   -3.3002   59.9175 C.3     1  ZINC000330515179    0.0300
      2 O2        -15.3095   -1.8742   59.9572 O.3     1  ZINC000330515179   -0.3800
      3 C3        -14.1823   -1.3791   60.6827 C.3     1  ZINC000330515179    0.0700
      4 C4        -12.9120   -1.5876   59.8559 C.3     1  ZINC000330515179    0.0800
      5 H5        -12.5455   -2.6038   60.0015 H       1  ZINC000330515179    0.0800
      6 C6        -11.8398   -0.5876   60.3036 C.3     1  ZINC000330515179    0.0900
      7 N7        -10.7020   -0.6804   59.3750 N.am    1  ZINC000330515179   -1.0000
      8 S8         -9.1554   -0.8650   59.9376 S.o2    1  ZINC000330515179    2.6900
      9 O9         -9.2266   -0.7488   61.3521 O.2     1  ZINC000330515179   -0.9400
     10 O10        -8.6215   -2.0042   59.2772 O.2     1  ZINC000330515179   -0.9500
     11 C11        -8.2254    0.5200   59.3708 C.ar    1  ZINC000330515179   -0.6700
     12 C12        -7.9664    1.5751   60.2257 C.ar    1  ZINC000330515179   -0.0100
     13 C13        -7.2366    2.6616   59.7816 C.ar    1  ZINC000330515179   -0.1100
     14 C14        -6.7653    2.6932   58.4815 C.ar    1  ZINC000330515179   -0.0400
     15 Br15       -5.7661    4.1791   57.8735 Br      1  ZINC000330515179   -0.0300
     16 C16        -7.0246    1.6373   57.6264 C.ar    1  ZINC000330515179   -0.1100
     17 C17        -7.7501    0.5488   58.0730 C.ar    1  ZINC000330515179   -0.0100
     18 C18       -10.9790   -0.6038   57.9319 C.3     1  ZINC000330515179    0.1000
     19 C19       -12.0931   -1.6030   57.5997 C.3     1  ZINC000330515179    0.1000
     20 C20       -12.5366   -1.4102   56.1482 C.3     1  ZINC000330515179   -0.1400
     21 C21       -11.5737   -3.0295   57.7902 C.3     1  ZINC000330515179   -0.1800
     22 O22       -13.2033   -1.3786   58.4720 O.3     1  ZINC000330515179   -0.3500
     23 H23       -16.2761   -3.5959   59.3489 H       1  ZINC000330515179    0.0900
     24 H24       -14.5017   -3.7041   59.4399 H       1  ZINC000330515179    0.0400
     25 H25       -15.4701   -3.6881   60.9333 H       1  ZINC000330515179    0.0400
     26 H26       -14.3163   -0.3157   60.8809 H       1  ZINC000330515179    0.0600
     27 H27       -14.0935   -1.9163   61.6269 H       1  ZINC000330515179    0.0700
     28 H28       -12.2486    0.4226   60.2834 H       1  ZINC000330515179    0.0900
     29 H29       -11.5100   -0.8305   61.3137 H       1  ZINC000330515179    0.1000
     30 H30        -8.3348    1.5505   61.2407 H       1  ZINC000330515179    0.1500
     31 H31        -7.0346    3.4860   60.4494 H       1  ZINC000330515179    0.1500
     32 H32        -6.6568    1.6614   56.6113 H       1  ZINC000330515179    0.1500
     33 H33        -7.9526   -0.2757   57.4054 H       1  ZINC000330515179    0.1500
     34 H34       -11.3012    0.4047   57.6729 H       1  ZINC000330515179    0.0900
     35 H35       -10.0792   -0.8576   57.3714 H       1  ZINC000330515179    0.1000
     36 H36       -11.6888   -1.5778   55.4840 H       1  ZINC000330515179    0.0800
     37 H37       -13.3287   -2.1209   55.9128 H       1  ZINC000330515179    0.0700
     38 H38       -12.9081   -0.3943   56.0137 H       1  ZINC000330515179    0.0700
     39 H39       -11.2596   -3.1668   58.8249 H       1  ZINC000330515179    0.0600
     40 H40       -12.3664   -3.7394   57.5539 H       1  ZINC000330515179    0.0700
     41 H41       -10.7250   -3.1987   57.1274 H       1  ZINC000330515179    0.0700
@<TRIPOS>BOND
     1     1     2    1
     2     1    23    1
     3     1    24    1
     4     1    25    1
     5     2     3    1
     6     3     4    1
     7     3    26    1
     8     3    27    1
     9     4     5    1
    10     4    22    1
    11     4     6    1
    12     6     7    1
    13     6    28    1
    14     6    29    1
    15     7     8   am
    16     7    18    1
    17     8     9    2
    18     8    10    2
    19     8    11    1
    20    11    17   ar
    21    11    12   ar
    22    12    13   ar
    23    12    30    1
    24    13    14   ar
    25    13    31    1
    26    14    15    1
    27    14    16   ar
    28    16    17   ar
    29    16    32    1
    30    17    33    1
    31    18    19    1
    32    18    34    1
    33    18    35    1
    34    19    20    1
    35    19    21    1
    36    19    22    1
    37    20    36    1
    38    20    37    1
    39    20    38    1
    40    21    39    1
    41    21    40    1
    42    21    41    1
@<TRIPOS>SUBSTRUCTURE
     1 ZINC000330515179        1 TEMP              0 ****  ****    0 ROOT


##########                                Name:    ZINC001135312623
##########                DOCK_Rotatable_Bonds:                   3
##########                         Heavy_Atoms:                  25
##########                    Molecular_Weight:             341.323
##########                DOCK_Rotatable_Bonds:                   3
##########                       Formal_Charge:        -1.78814e-07
##########                     HBond_Acceptors:                   8
##########                        HBond_Donors:                   2
##########                         Heavy_Atoms:                  25
##########                          Grid_Score:          -26.025906
##########                     Grid_vdw_energy:          -26.086941
##########                      Grid_es_energy:            0.061036
##########           Internal_energy_repulsive:            5.191753

@<TRIPOS>MOLECULE
ZINC001135312623
 40 42 1 0 0
SMALL
USER_CHARGES


@<TRIPOS>ATOM
      1 C1        -11.9795    0.6822   55.1510 C.3     1  ZINC001135312623   -0.1300
      2 C2        -11.4246   -0.0395   56.3519 C.ar    1  ZINC001135312623   -0.0600
      3 C3        -12.2815   -0.6014   57.2775 C.ar    1  ZINC001135312623   -0.1000
      4 C4        -11.7731   -1.2635   58.3803 C.ar    1  ZINC001135312623   -0.0300
      5 C5        -12.7113   -1.8754   59.3884 C.3     1  ZINC001135312623   -0.1300
      6 C6        -10.4060   -1.3656   58.5594 C.ar    1  ZINC001135312623   -0.0200
      7 N7         -9.8662   -2.0751   59.7410 N.pl3   1  ZINC001135312623    0.0200
      8 O8         -8.8462   -1.6787   60.2760 O.2     1  ZINC001135312623   -0.1500
      9 O9        -10.4419   -3.0552   60.1784 O.2     1  ZINC001135312623   -0.1500
     10 C10        -9.5433   -0.8066   57.6368 C.ar    1  ZINC001135312623   -0.0700
     11 C11       -10.0505   -0.1452   56.5260 C.ar    1  ZINC001135312623    0.1500
     12 N12        -9.1799    0.4218   55.5899 N.am    1  ZINC001135312623   -0.6600
     13 C13        -8.7939   -0.2889   54.5117 C.2     1  ZINC001135312623    0.5600
     14 O14        -9.2027   -1.4230   54.3529 O.2     1  ZINC001135312623   -0.5000
     15 C15        -7.8754    0.3094   53.5240 C.ar    1  ZINC001135312623   -0.1600
     16 C16        -7.7121   -0.2854   52.2700 C.ar    1  ZINC001135312623   -0.0400
     17 C17        -6.8538    0.2733   51.3485 C.ar    1  ZINC001135312623   -0.1500
     18 C18        -6.1515    1.4285   51.6670 C.ar    1  ZINC001135312623    0.2000
     19 N19        -5.2749    2.0089   50.7499 N.am    1  ZINC001135312623   -0.6700
     20 C20        -4.3785    2.9237   51.1704 C.2     1  ZINC001135312623    0.6600
     21 O21        -3.6323    3.4464   50.3664 O.2     1  ZINC001135312623   -0.4900
     22 O22        -4.3001    3.2653   52.4691 O.3     1  ZINC001135312623   -0.3400
     23 C23        -5.5385    3.2797   53.2311 C.3     1  ZINC001135312623    0.1100
     24 C24        -6.3139    2.0247   52.9167 C.ar    1  ZINC001135312623   -0.1800
     25 C25        -7.1709    1.4762   53.8392 C.ar    1  ZINC001135312623    0.0000
     26 H26       -12.1140   -0.0248   54.3324 H       1  ZINC001135312623    0.0900
     27 H27       -12.9404    1.1286   55.4072 H       1  ZINC001135312623    0.0800
     28 H28       -11.2854    1.4649   54.8447 H       1  ZINC001135312623    0.0700
     29 H29       -13.3499   -0.5234   57.1404 H       1  ZINC001135312623    0.1500
     30 H30       -13.0002   -2.8729   59.0572 H       1  ZINC001135312623    0.0900
     31 H31       -12.2118   -1.9438   60.3548 H       1  ZINC001135312623    0.0800
     32 H32       -13.6005   -1.2521   59.4823 H       1  ZINC001135312623    0.0800
     33 H33        -8.4755   -0.8867   57.7774 H       1  ZINC001135312623    0.1700
     34 H34        -8.8537    1.3265   55.7166 H       1  ZINC001135312623    0.4200
     35 H35        -8.2587   -1.1836   52.0232 H       1  ZINC001135312623    0.1400
     36 H36        -6.7270   -0.1865   50.3796 H       1  ZINC001135312623    0.1500
     37 H37        -5.3102    1.7551   49.8144 H       1  ZINC001135312623    0.4300
     38 H38        -5.3117    3.3121   54.2968 H       1  ZINC001135312623    0.1300
     39 H39        -6.1284    4.1533   52.9537 H       1  ZINC001135312623    0.1000
     40 H40        -7.2975    1.9417   54.8055 H       1  ZINC001135312623    0.1500
@<TRIPOS>BOND
     1     1     2    1
     2     1    26    1
     3     1    27    1
     4     1    28    1
     5     2    11   ar
     6     2     3   ar
     7     3     4   ar
     8     3    29    1
     9     4     5    1
    10     4     6   ar
    11     5    30    1
    12     5    31    1
    13     5    32    1
    14     6     7    1
    15     6    10   ar
    16     7     8    2
    17     7     9    2
    18    10    11   ar
    19    10    33    1
    20    11    12    1
    21    12    13   am
    22    12    34    1
    23    13    14    2
    24    13    15    1
    25    15    25   ar
    26    15    16   ar
    27    16    17   ar
    28    16    35    1
    29    17    18   ar
    30    17    36    1
    31    18    24   ar
    32    18    19    1
    33    19    20   am
    34    19    37    1
    35    20    21    2
    36    20    22    1
    37    22    23    1
    38    23    24    1
    39    23    38    1
    40    23    39    1
    41    24    25   ar
    42    25    40    1
@<TRIPOS>SUBSTRUCTURE
     1 ZINC001135312623        1 TEMP              0 ****  ****    0 ROOT


##########                                Name:    ZINC001220212140
##########                DOCK_Rotatable_Bonds:                   6
##########                         Heavy_Atoms:                  28
##########                    Molecular_Weight:             379.459
##########                DOCK_Rotatable_Bonds:                   6
##########                       Formal_Charge:         -0.00999925
##########                     HBond_Acceptors:                   6
##########                        HBond_Donors:                   1
##########                         Heavy_Atoms:                  28
##########                          Grid_Score:          -26.018143
##########                     Grid_vdw_energy:          -25.798632
##########                      Grid_es_energy:           -0.219512
##########           Internal_energy_repulsive:          171.942535

@<TRIPOS>MOLECULE
ZINC001220212140
 53 56 1 0 0
SMALL
USER_CHARGES


@<TRIPOS>ATOM
      1 C1        -13.9029   -0.0512   58.0578 C.3     1  ZINC001220212140   -0.1700
      2 C2        -14.2724   -0.4220   56.6202 C.3     1  ZINC001220212140    0.0800
      3 H3        -15.3489   -0.5627   56.5238 H       1  ZINC001220212140    0.1200
      4 C4        -13.7698    0.6552   55.6300 C.3     1  ZINC001220212140   -0.1100
      5 C5        -12.4152    0.1042   55.2281 C.ar    1  ZINC001220212140   -0.1500
      6 C6        -11.3341    0.6800   54.6000 C.ar    1  ZINC001220212140   -0.0700
      7 C7        -10.1917   -0.0728   54.3569 C.ar    1  ZINC001220212140    0.1400
      8 N8         -9.0876    0.5080   53.7183 N.am    1  ZINC001220212140   -0.6800
      9 C9         -8.9737    0.4426   52.3770 C.2     1  ZINC001220212140    0.7200
     10 O10        -9.8288   -0.1203   51.7209 O.2     1  ZINC001220212140   -0.5700
     11 N11        -7.9120    1.0011   51.7627 N.am    1  ZINC001220212140   -0.6300
     12 C12        -7.6639    1.0034   50.3135 C.3     1  ZINC001220212140    0.0900
     13 C13        -6.3508    1.7780   50.0747 C.3     1  ZINC001220212140   -0.1100
     14 C14        -6.2279    2.6549   51.3488 C.3     1  ZINC001220212140   -0.1300
     15 H15        -6.8268    3.5611   51.2587 H       1  ZINC001220212140    0.1200
     16 C16        -4.7871    2.9896   51.6374 C.2     1  ZINC001220212140    0.5300
     17 O17        -3.9109    2.5778   50.9069 O.2     1  ZINC001220212140   -0.5100
     18 N18        -4.4724    3.7465   52.7072 N.am    1  ZINC001220212140   -0.5700
     19 C19        -5.5308    4.2439   53.5896 C.3     1  ZINC001220212140    0.0700
     20 C20        -3.1347    4.0572   52.9751 C.ar    1  ZINC001220212140    0.1400
     21 C21        -2.1305    3.5903   52.1371 C.ar    1  ZINC001220212140   -0.1100
     22 C22        -0.8110    3.8987   52.4043 C.ar    1  ZINC001220212140   -0.1100
     23 C23        -0.4894    4.6713   53.5051 C.ar    1  ZINC001220212140   -0.1200
     24 C24        -1.4868    5.1373   54.3417 C.ar    1  ZINC001220212140   -0.1100
     25 C25        -2.8087    4.8380   54.0765 C.ar    1  ZINC001220212140   -0.1200
     26 C26        -6.8104    1.7166   52.4320 C.3     1  ZINC001220212140    0.1400
     27 C27       -10.1501   -1.4032   54.7509 C.ar    1  ZINC001220212140   -0.1100
     28 C28       -11.2367   -1.9773   55.3768 C.ar    1  ZINC001220212140   -0.1200
     29 C29       -12.3852   -1.2284   55.6195 C.ar    1  ZINC001220212140    0.0900
     30 O30       -13.5650   -1.6010   56.2004 O.3     1  ZINC001220212140   -0.3000
     31 H31       -12.8227    0.0727   58.1350 H       1  ZINC001220212140    0.0600
     32 H32       -14.3959    0.8819   58.3306 H       1  ZINC001220212140    0.0800
     33 H33       -14.2268   -0.8439   58.7322 H       1  ZINC001220212140    0.0700
     34 H34       -14.4314    0.7300   54.7671 H       1  ZINC001220212140    0.0900
     35 H35       -13.6662    1.6210   56.1246 H       1  ZINC001220212140    0.0900
     36 H36       -11.3736    1.7158   54.2966 H       1  ZINC001220212140    0.1400
     37 H37        -8.4054    0.9571   54.2416 H       1  ZINC001220212140    0.4100
     38 H38        -7.5611   -0.0204   49.9535 H       1  ZINC001220212140    0.0700
     39 H39        -8.4860    1.4992   49.7974 H       1  ZINC001220212140    0.0700
     40 H40        -5.5072    1.0922   49.9957 H       1  ZINC001220212140    0.1000
     41 H41        -6.4272    2.4012   49.1836 H       1  ZINC001220212140    0.0900
     42 H42        -5.7117    3.5198   54.3840 H       1  ZINC001220212140    0.0700
     43 H43        -5.2229    5.1936   54.0269 H       1  ZINC001220212140    0.0800
     44 H44        -6.4454    4.3883   53.0144 H       1  ZINC001220212140    0.0800
     45 H45        -2.3811    2.9864   51.2775 H       1  ZINC001220212140    0.1200
     46 H46        -0.0298    3.5359   51.7528 H       1  ZINC001220212140    0.1300
     47 H47         0.5432    4.9107   53.7121 H       1  ZINC001220212140    0.1300
     48 H48        -1.2321    5.7398   55.2011 H       1  ZINC001220212140    0.1300
     49 H49        -3.5872    5.2022   54.7302 H       1  ZINC001220212140    0.1200
     50 H50        -7.1868    2.2971   53.2742 H       1  ZINC001220212140    0.0900
     51 H51        -6.0530    1.0079   52.7670 H       1  ZINC001220212140    0.0700
     52 H52        -9.2633   -1.9912   54.5660 H       1  ZINC001220212140    0.1300
     53 H53       -11.1966   -3.0131   55.6803 H       1  ZINC001220212140    0.1300
@<TRIPOS>BOND
     1     1     2    1
     2     1    31    1
     3     1    32    1
     4     1    33    1
     5     2     3    1
     6     2    30    1
     7     2     4    1
     8     4     5    1
     9     4    34    1
    10     4    35    1
    11     5    29   ar
    12     5     6   ar
    13     6     7   ar
    14     6    36    1
    15     7     8    1
    16     7    27   ar
    17     8     9   am
    18     8    37    1
    19     9    10    2
    20     9    11   am
    21    11    26    1
    22    11    12    1
    23    12    13    1
    24    12    38    1
    25    12    39    1
    26    13    14    1
    27    13    40    1
    28    13    41    1
    29    14    15    1
    30    14    16    1
    31    14    26    1
    32    16    17    2
    33    16    18   am
    34    18    19    1
    35    18    20    1
    36    19    42    1
    37    19    43    1
    38    19    44    1
    39    20    25   ar
    40    20    21   ar
    41    21    22   ar
    42    21    45    1
    43    22    23   ar
    44    22    46    1
    45    23    24   ar
    46    23    47    1
    47    24    25   ar
    48    24    48    1
    49    25    49    1
    50    26    50    1
    51    26    51    1
    52    27    28   ar
    53    27    52    1
    54    28    29   ar
    55    28    53    1
    56    29    30    1
@<TRIPOS>SUBSTRUCTURE
     1 ZINC001220212140        1 TEMP              0 ****  ****    0 ROOT


##########                                Name:    ZINC000793092912
##########                DOCK_Rotatable_Bonds:                   4
##########                         Heavy_Atoms:                  26
##########                    Molecular_Weight:               407.2
##########                DOCK_Rotatable_Bonds:                   4
##########                       Formal_Charge:         2.90573e-07
##########                     HBond_Acceptors:                  10
##########                        HBond_Donors:                   1
##########                         Heavy_Atoms:                  26
##########                          Grid_Score:          -25.977970
##########                     Grid_vdw_energy:          -26.253000
##########                      Grid_es_energy:            0.275030
##########           Internal_energy_repulsive:           10.652337

@<TRIPOS>MOLECULE
ZINC000793092912
 40 43 1 0 0
SMALL
USER_CHARGES


@<TRIPOS>ATOM
      1 C1        -15.8987   -1.0216   58.9219 C.3     1  ZINC000793092912   -0.1300
      2 C2        -14.5649   -1.5360   58.3767 C.3     1  ZINC000793092912   -0.0800
      3 C3        -14.0497   -0.8156   57.1402 C.3     1  ZINC000793092912   -0.1100
      4 C4        -12.6106   -0.3597   57.2923 C.3     1  ZINC000793092912    0.1100
      5 N5        -11.7875   -1.3643   57.9441 N.am    1  ZINC000793092912   -0.5700
      6 C6        -10.6788   -1.8030   57.3160 C.2     1  ZINC000793092912    0.5100
      7 O7         -9.9757   -2.6416   57.8407 O.2     1  ZINC000793092912   -0.5100
      8 C8        -10.3153   -1.2573   55.9743 C.2     1  ZINC000793092912    0.5100
      9 O9        -10.5477   -1.9032   54.9731 O.2     1  ZINC000793092912   -0.4900
     10 N10        -9.7292   -0.0477   55.8750 N.am    1  ZINC000793092912   -0.6400
     11 C11        -9.3888    0.4633   54.6185 C.ar    1  ZINC000793092912    0.1600
     12 C12       -10.3559    1.0768   53.8329 C.ar    1  ZINC000793092912   -0.1200
     13 C13       -10.0210    1.5821   52.5912 C.ar    1  ZINC000793092912   -0.0600
     14 C14        -8.7201    1.4779   52.1260 C.ar    1  ZINC000793092912    0.0200
     15 O15        -8.1423    1.8866   50.9579 O.3     1  ZINC000793092912   -0.2800
     16 C16        -6.7244    1.8819   51.2083 C.3     1  ZINC000793092912    0.5700
     17 F17        -6.0227    1.5164   50.0545 F       1  ZINC000793092912   -0.1100
     18 F18        -6.3014    3.1356   51.6627 F       1  ZINC000793092912   -0.1500
     19 O19        -6.5616    0.8867   52.2359 O.3     1  ZINC000793092912   -0.2800
     20 C20        -7.7474    0.8629   52.9118 C.ar    1  ZINC000793092912    0.0500
     21 C21        -8.0820    0.3624   54.1581 C.ar    1  ZINC000793092912   -0.0900
     22 C22       -12.1171   -1.9131   59.2509 C.3     1  ZINC000793092912    0.1100
     23 C23       -13.6113   -2.1715   59.3749 C.3     1  ZINC000793092912   -0.1200
     24 H24       -13.9811   -2.2112   60.3995 H       1  ZINC000793092912    0.1400
     25 C25       -14.3529   -3.0594   58.3870 C.3     1  ZINC000793092912    0.0000
     26 Cl26      -15.6785   -4.0978   59.0314 Cl      1  ZINC000793092912   -0.0800
     27 Cl27      -13.4054   -3.7619   57.0233 Cl      1  ZINC000793092912   -0.0900
     28 H28       -15.7123   -0.2574   59.6766 H       1  ZINC000793092912    0.0800
     29 H29       -16.4830   -0.5930   58.1076 H       1  ZINC000793092912    0.0700
     30 H30       -16.4509   -1.8476   59.3698 H       1  ZINC000793092912    0.0700
     31 H31       -14.1180   -1.4887   56.2856 H       1  ZINC000793092912    0.0900
     32 H32       -14.6776    0.0553   56.9519 H       1  ZINC000793092912    0.1000
     33 H33       -12.1990   -0.1502   56.3050 H       1  ZINC000793092912    0.1100
     34 H34       -12.5894    0.5550   57.8849 H       1  ZINC000793092912    0.0800
     35 H35        -9.5435    0.4684   56.6751 H       1  ZINC000793092912    0.4300
     36 H36       -11.3709    1.1586   54.1927 H       1  ZINC000793092912    0.1500
     37 H37       -10.7747    2.0589   51.9821 H       1  ZINC000793092912    0.1500
     38 H38        -7.3283   -0.1095   54.7709 H       1  ZINC000793092912    0.1600
     39 H39       -11.5929   -2.8596   59.3831 H       1  ZINC000793092912    0.1400
     40 H40       -11.7928   -1.2157   60.0232 H       1  ZINC000793092912    0.1000
@<TRIPOS>BOND
     1     1     2    1
     2     1    28    1
     3     1    29    1
     4     1    30    1
     5     2    23    1
     6     2    25    1
     7     2     3    1
     8     3     4    1
     9     3    31    1
    10     3    32    1
    11     4     5    1
    12     4    33    1
    13     4    34    1
    14     5     6   am
    15     5    22    1
    16     6     7    2
    17     6     8    1
    18     8     9    2
    19     8    10   am
    20    10    11    1
    21    10    35    1
    22    11    21   ar
    23    11    12   ar
    24    12    13   ar
    25    12    36    1
    26    13    14   ar
    27    13    37    1
    28    14    20   ar
    29    14    15    1
    30    15    16    1
    31    16    17    1
    32    16    18    1
    33    16    19    1
    34    19    20    1
    35    20    21   ar
    36    21    38    1
    37    22    23    1
    38    22    39    1
    39    22    40    1
    40    23    24    1
    41    23    25    1
    42    25    26    1
    43    25    27    1
@<TRIPOS>SUBSTRUCTURE
     1 ZINC000793092912        1 TEMP              0 ****  ****    0 ROOT


##########                                Name:    ZINC000192150625
##########                DOCK_Rotatable_Bonds:                   5
##########                         Heavy_Atoms:                  28
##########                    Molecular_Weight:             377.443
##########                DOCK_Rotatable_Bonds:                   5
##########                       Formal_Charge:           0.0199997
##########                     HBond_Acceptors:                   6
##########                        HBond_Donors:                   1
##########                         Heavy_Atoms:                  28
##########                          Grid_Score:          -25.957623
##########                     Grid_vdw_energy:          -26.041700
##########                      Grid_es_energy:            0.084077
##########           Internal_energy_repulsive:           32.671692

@<TRIPOS>MOLECULE
ZINC000192150625
 51 54 1 0 0
SMALL
USER_CHARGES


@<TRIPOS>ATOM
      1 C1          2.5500    2.7159   51.1588 C.3     1  ZINC000192150625   -0.0800
      2 C2          1.0836    2.5503   50.8529 C.2     1  ZINC000192150625    0.0400
      3 C3          0.0972    3.2568   51.4211 C.2     1  ZINC000192150625   -0.1800
      4 C4          0.2414    4.3387   52.4602 C.3     1  ZINC000192150625   -0.0800
      5 C5         -1.1525    2.7655   50.8277 C.ar    1  ZINC000192150625   -0.1000
      6 C6         -2.4988    3.0844   50.9924 C.ar    1  ZINC000192150625   -0.0700
      7 C7         -3.4556    2.4087   50.2547 C.ar    1  ZINC000192150625    0.1200
      8 N8         -4.8096    2.7223   50.4131 N.am    1  ZINC000192150625   -0.6400
      9 C9         -5.7223    1.7358   50.5150 C.2     1  ZINC000192150625    0.5100
     10 O10        -5.3693    0.5753   50.4695 O.2     1  ZINC000192150625   -0.4900
     11 C11        -7.1679    2.0706   50.6841 C.2     1  ZINC000192150625    0.5100
     12 O12        -7.6647    2.9632   50.0290 O.2     1  ZINC000192150625   -0.5200
     13 N13        -7.9207    1.3813   51.5642 N.am    1  ZINC000192150625   -0.5800
     14 C14        -7.3321    0.3020   52.3689 C.3     1  ZINC000192150625    0.0500
     15 C15        -7.6265    0.5727   53.8476 C.3     1  ZINC000192150625   -0.1200
     16 C16        -9.1346    0.7490   54.0395 C.3     1  ZINC000192150625   -0.0500
     17 C17        -9.4312    0.9816   55.4986 C.ar    1  ZINC000192150625   -0.0300
     18 C18        -8.4113    1.2666   56.3935 C.ar    1  ZINC000192150625   -0.1700
     19 C19        -8.7214    1.4742   57.7243 C.ar    1  ZINC000192150625    0.1000
     20 N20        -9.9691    1.4032   58.1451 N.ar    1  ZINC000192150625   -0.4900
     21 C21       -10.9642    1.1345   57.3225 C.ar    1  ZINC000192150625    0.1000
     22 C22       -10.7312    0.9214   55.9770 C.ar    1  ZINC000192150625   -0.1700
     23 C23        -9.6174    1.9499   53.2232 C.3     1  ZINC000192150625   -0.1200
     24 C24        -9.3442    1.6989   51.7418 C.3     1  ZINC000192150625    0.1100
     25 C25        -3.0720    1.4167   49.3543 C.ar    1  ZINC000192150625   -0.1100
     26 C26        -1.7428    1.0969   49.1870 C.ar    1  ZINC000192150625   -0.0800
     27 C27        -0.7689    1.7648   49.9189 C.ar    1  ZINC000192150625    0.0500
     28 O28         0.5766    1.6764   49.9661 O.3     1  ZINC000192150625   -0.1900
     29 H29         3.1287    2.0196   50.5518 H       1  ZINC000192150625    0.0800
     30 H30         2.8556    3.7371   50.9312 H       1  ZINC000192150625    0.0900
     31 H31         2.7263    2.5107   52.2147 H       1  ZINC000192150625    0.0900
     32 H32         0.3526    5.3042   51.9665 H       1  ZINC000192150625    0.0700
     33 H33        -0.6454    4.3546   53.0938 H       1  ZINC000192150625    0.0700
     34 H34         1.1215    4.1399   53.0719 H       1  ZINC000192150625    0.0700
     35 H35        -2.7939    3.8534   51.6911 H       1  ZINC000192150625    0.1400
     36 H36        -5.0916    3.6496   50.4495 H       1  ZINC000192150625    0.4300
     37 H37        -7.7713   -0.6521   52.0775 H       1  ZINC000192150625    0.0700
     38 H38        -6.2541    0.2740   52.2100 H       1  ZINC000192150625    0.1600
     39 H39        -7.2792   -0.2685   54.4476 H       1  ZINC000192150625    0.0800
     40 H40        -7.1113    1.4808   54.1609 H       1  ZINC000192150625    0.0700
     41 H41        -9.6509   -0.1500   53.7028 H       1  ZINC000192150625    0.0900
     42 H42        -7.3874    1.3254   56.0551 H       1  ZINC000192150625    0.1300
     43 H43        -7.9327    1.6966   58.4277 H       1  ZINC000192150625    0.1600
     44 H44       -11.9733    1.0843   57.7039 H       1  ZINC000192150625    0.1600
     45 H45       -11.5503    0.7021   55.3082 H       1  ZINC000192150625    0.1300
     46 H46       -10.6873    2.0891   53.3787 H       1  ZINC000192150625    0.0800
     47 H47        -9.0835    2.8451   53.5423 H       1  ZINC000192150625    0.0700
     48 H48        -9.5952    2.5909   51.1676 H       1  ZINC000192150625    0.1000
     49 H49        -9.9459    0.8582   51.3965 H       1  ZINC000192150625    0.0800
     50 H50        -3.8242    0.8934   48.7825 H       1  ZINC000192150625    0.1400
     51 H51        -1.4572    0.3264   48.4862 H       1  ZINC000192150625    0.1400
@<TRIPOS>BOND
     1     1     2    1
     2     1    29    1
     3     1    30    1
     4     1    31    1
     5     2    28    1
     6     2     3    2
     7     3     4    1
     8     3     5    1
     9     4    32    1
    10     4    33    1
    11     4    34    1
    12     5    27   ar
    13     5     6   ar
    14     6     7   ar
    15     6    35    1
    16     7     8    1
    17     7    25   ar
    18     8     9   am
    19     8    36    1
    20     9    10    2
    21     9    11    1
    22    11    12    2
    23    11    13   am
    24    13    24    1
    25    13    14    1
    26    14    15    1
    27    14    37    1
    28    14    38    1
    29    15    16    1
    30    15    39    1
    31    15    40    1
    32    16    17    1
    33    16    23    1
    34    16    41    1
    35    17    22   ar
    36    17    18   ar
    37    18    19   ar
    38    18    42    1
    39    19    20   ar
    40    19    43    1
    41    20    21   ar
    42    21    22   ar
    43    21    44    1
    44    22    45    1
    45    23    24    1
    46    23    46    1
    47    23    47    1
    48    24    48    1
    49    24    49    1
    50    25    26   ar
    51    25    50    1
    52    26    27   ar
    53    26    51    1
    54    27    28    1
@<TRIPOS>SUBSTRUCTURE
     1 ZINC000192150625        1 TEMP              0 ****  ****    0 ROOT


##########                                Name:    ZINC001039666729
##########                DOCK_Rotatable_Bonds:                   3
##########                         Heavy_Atoms:                  25
##########                    Molecular_Weight:             344.376
##########                DOCK_Rotatable_Bonds:                   3
##########                       Formal_Charge:          -0.0199998
##########                     HBond_Acceptors:                  10
##########                        HBond_Donors:                   2
##########                         Heavy_Atoms:                  25
##########                          Grid_Score:          -25.898920
##########                     Grid_vdw_energy:          -25.057344
##########                      Grid_es_energy:           -0.841576
##########           Internal_energy_repulsive:           22.053896

@<TRIPOS>MOLECULE
ZINC001039666729
 45 47 1 0 0
SMALL
USER_CHARGES


@<TRIPOS>ATOM
      1 C1         -8.6528   -0.0877   54.2340 C.3     1  ZINC001039666729   -0.1100
      2 C2        -10.0922   -0.3733   54.5771 C.ar    1  ZINC001039666729    0.2200
      3 C3        -11.1128    0.0935   53.7642 C.ar    1  ZINC001039666729   -0.3000
      4 C4        -12.4231   -0.1914   54.1159 C.ar    1  ZINC001039666729    0.1900
      5 N5        -12.6588   -0.8958   55.2102 N.ar    1  ZINC001039666729   -0.5800
      6 C6        -11.6596   -1.3275   55.9661 C.ar    1  ZINC001039666729    0.6000
      7 N7        -11.9422   -2.0626   57.1043 N.pl3   1  ZINC001039666729   -0.5900
      8 C8        -11.0441   -3.1253   57.6507 C.3     1  ZINC001039666729    0.1200
      9 C9         -9.9320   -2.4365   58.4450 C.3     1  ZINC001039666729    0.0900
     10 N10       -10.5497   -1.7102   59.5824 N.am    1  ZINC001039666729   -0.7400
     11 C11       -10.7473   -0.3727   59.3608 C.2     1  ZINC001039666729    0.5200
     12 O12       -10.4291    0.1349   58.3063 O.2     1  ZINC001039666729   -0.5200
     13 C13       -11.3694    0.4535   60.4569 C.3     1  ZINC001039666729   -0.1500
     14 C14       -12.6836    1.0571   59.9574 C.3     1  ZINC001039666729    0.1100
     15 N15       -13.5625   -0.0494   59.4982 N.am    1  ZINC001039666729   -0.6100
     16 C16       -14.4037   -0.7015   60.3250 C.2     1  ZINC001039666729    0.6100
     17 O17       -14.4660   -0.3899   61.4983 O.2     1  ZINC001039666729   -0.5200
     18 C18       -15.2508   -1.7955   59.8049 C.2     1  ZINC001039666729   -0.0400
     19 N19       -15.2230   -3.0701   60.1634 N.2     1  ZINC001039666729   -0.2500
     20 N20       -16.1116   -3.7048   59.4844 N.pl3   1  ZINC001039666729   -0.2300
     21 N21       -16.7354   -2.9148   58.6855 N.2     1  ZINC001039666729   -0.2800
     22 C22       -16.2618   -1.7003   58.8278 C.2     1  ZINC001039666729    0.0400
     23 C23       -13.4403   -0.3793   58.0545 C.3     1  ZINC001039666729    0.1100
     24 C24       -13.1765   -1.8774   57.9270 C.3     1  ZINC001039666729    0.1300
     25 N25       -10.3964   -1.0772   55.6551 N.ar    1  ZINC001039666729   -0.5700
     26 H26        -8.2661   -0.8837   53.5976 H       1  ZINC001039666729    0.0800
     27 H27        -8.5870    0.8637   53.7060 H       1  ZINC001039666729    0.0800
     28 H28        -8.0642   -0.0365   55.1499 H       1  ZINC001039666729    0.0800
     29 H29       -10.8922    0.6671   52.8760 H       1  ZINC001039666729    0.1400
     30 H30       -13.2416    0.1580   53.5041 H       1  ZINC001039666729    0.1600
     31 H31       -11.6108   -3.7862   58.3066 H       1  ZINC001039666729    0.0800
     32 H32       -10.6111   -3.6997   56.8317 H       1  ZINC001039666729    0.0900
     33 H33        -9.2337   -3.1835   58.8222 H       1  ZINC001039666729    0.0800
     34 H34        -9.4045   -1.7317   57.8023 H       1  ZINC001039666729    0.1000
     35 H35       -10.7932   -2.1464   60.4139 H       1  ZINC001039666729    0.4100
     36 H36       -11.5661   -0.1798   61.3220 H       1  ZINC001039666729    0.0800
     37 H37       -10.6864    1.2542   60.7406 H       1  ZINC001039666729    0.1100
     38 H38       -13.1698    1.6001   60.7679 H       1  ZINC001039666729    0.1100
     39 H39       -12.4841    1.7359   59.1282 H       1  ZINC001039666729    0.0900
     40 H40       -16.2875   -4.6554   59.5643 H       1  ZINC001039666729    0.4700
     41 H41       -16.5763   -0.8121   58.3000 H       1  ZINC001039666729    0.2100
     42 H42       -14.3655   -0.1212   57.5393 H       1  ZINC001039666729    0.0800
     43 H43       -12.6099    0.1771   57.6198 H       1  ZINC001039666729    0.1200
     44 H44       -14.0199   -2.3596   57.4327 H       1  ZINC001039666729    0.0700
     45 H45       -13.0302   -2.3116   58.9160 H       1  ZINC001039666729    0.0900
@<TRIPOS>BOND
     1     1     2    1
     2     1    26    1
     3     1    27    1
     4     1    28    1
     5     2    25   ar
     6     2     3   ar
     7     3     4   ar
     8     3    29    1
     9     4     5   ar
    10     4    30    1
    11     5     6   ar
    12     6     7    1
    13     6    25   ar
    14     7    24    1
    15     7     8    1
    16     8     9    1
    17     8    31    1
    18     8    32    1
    19     9    10    1
    20     9    33    1
    21     9    34    1
    22    10    11   am
    23    10    35    1
    24    11    12    2
    25    11    13    1
    26    13    14    1
    27    13    36    1
    28    13    37    1
    29    14    15    1
    30    14    38    1
    31    14    39    1
    32    15    16   am
    33    15    23    1
    34    16    17    2
    35    16    18    1
    36    18    22    1
    37    18    19    2
    38    19    20    1
    39    20    21    1
    40    20    40    1
    41    21    22    2
    42    22    41    1
    43    23    24    1
    44    23    42    1
    45    23    43    1
    46    24    44    1
    47    24    45    1
@<TRIPOS>SUBSTRUCTURE
     1 ZINC001039666729        1 TEMP              0 ****  ****    0 ROOT


##########                                Name:    ZINC000543020509
##########                DOCK_Rotatable_Bonds:                   5
##########                         Heavy_Atoms:                  26
##########                    Molecular_Weight:              366.81
##########                DOCK_Rotatable_Bonds:                   5
##########                       Formal_Charge:               -0.02
##########                     HBond_Acceptors:                   8
##########                        HBond_Donors:                   1
##########                         Heavy_Atoms:                  26
##########                          Grid_Score:          -25.838142
##########                     Grid_vdw_energy:          -26.091669
##########                      Grid_es_energy:            0.253528
##########           Internal_energy_repulsive:           19.630924

@<TRIPOS>MOLECULE
ZINC000543020509
 41 43 1 0 0
SMALL
USER_CHARGES


@<TRIPOS>ATOM
      1 C1        -14.1519   -0.2492   54.7695 C.3     1  ZINC000543020509    0.0800
      2 N2        -13.0201    0.4634   54.1715 N.pl3   1  ZINC000543020509   -0.6200
      3 C3        -13.2245    1.7768   53.5555 C.3     1  ZINC000543020509    0.0900
      4 C4        -11.7507   -0.1073   54.1887 C.ar    1  ZINC000543020509    0.2500
      5 C5        -11.5365   -1.3553   54.7712 C.ar    1  ZINC000543020509   -0.2200
      6 C6        -10.2622   -1.8921   54.7698 C.ar    1  ZINC000543020509    0.1400
      7 N7         -9.2537   -1.2427   54.2279 N.ar    1  ZINC000543020509   -0.5000
      8 C8         -9.4109   -0.0510   53.6616 C.ar    1  ZINC000543020509    0.1100
      9 C9         -8.2428    0.6378   53.0653 C.2     1  ZINC000543020509    0.5900
     10 O10        -7.1211    0.2140   53.2635 O.2     1  ZINC000543020509   -0.5000
     11 N11        -8.4238    1.7345   52.3032 N.am    1  ZINC000543020509   -0.6200
     12 C12        -7.3204    2.3842   51.7385 C.2     1  ZINC000543020509    0.3200
     13 N13        -6.1163    1.8797   51.6034 N.2     1  ZINC000543020509   -0.3100
     14 N14        -5.3032    2.8440   50.9940 N.pl3   1  ZINC000543020509   -0.3300
     15 C15        -3.9510    2.6965   50.6753 C.ar    1  ZINC000543020509    0.2200
     16 C16        -3.5605    1.7947   49.6965 C.ar    1  ZINC000543020509   -0.1300
     17 C17        -2.2232    1.6498   49.3822 C.ar    1  ZINC000543020509   -0.0500
     18 C18        -1.2630    2.4017   50.0401 C.ar    1  ZINC000543020509   -0.0600
     19 Cl19        0.4138    2.2084   49.6341 Cl      1  ZINC000543020509   -0.0500
     20 C20        -1.6340    3.3039   51.0164 C.ar    1  ZINC000543020509   -0.0400
     21 C21        -2.9828    3.4640   51.3399 C.ar    1  ZINC000543020509   -0.0200
     22 C22        -3.3746    4.3983   52.3519 C.1     1  ZINC000543020509    0.2500
     23 N23        -3.6854    5.1395   53.1547 N.1     1  ZINC000543020509   -0.3800
     24 C24        -6.0622    3.9479   50.7670 C.2     1  ZINC000543020509    0.0700
     25 C25        -7.3118    3.6874   51.2127 C.2     1  ZINC000543020509   -0.2400
     26 C26       -10.6624    0.5528   53.6183 C.ar    1  ZINC000543020509   -0.1800
     27 H27       -14.6240   -0.8790   54.0155 H       1  ZINC000543020509    0.0600
     28 H28       -13.7965   -0.8708   55.5914 H       1  ZINC000543020509    0.0700
     29 H29       -14.8771    0.4720   55.1465 H       1  ZINC000543020509    0.0700
     30 H30       -14.2746    2.0572   53.6375 H       1  ZINC000543020509    0.0800
     31 H31       -12.6096    2.5176   54.0666 H       1  ZINC000543020509    0.0600
     32 H32       -12.9413    1.7329   52.5038 H       1  ZINC000543020509    0.0600
     33 H33       -12.3566   -1.8969   55.2190 H       1  ZINC000543020509    0.1400
     34 H34       -10.0919   -2.8587   55.2204 H       1  ZINC000543020509    0.1700
     35 H35        -9.3190    2.0734   52.1459 H       1  ZINC000543020509    0.4300
     36 H36        -4.3029    1.2049   49.1795 H       1  ZINC000543020509    0.1500
     37 H37        -1.9243    0.9460   48.6195 H       1  ZINC000543020509    0.1500
     38 H38        -0.8824    3.8879   51.5267 H       1  ZINC000543020509    0.1500
     39 H39        -5.7282    4.8672   50.3090 H       1  ZINC000543020509    0.1900
     40 H40        -8.1529    4.3638   51.1769 H       1  ZINC000543020509    0.1800
     41 H41       -10.7884    1.5213   53.1572 H       1  ZINC000543020509    0.1500
@<TRIPOS>BOND
     1     1     2    1
     2     1    27    1
     3     1    28    1
     4     1    29    1
     5     2     3    1
     6     2     4    1
     7     3    30    1
     8     3    31    1
     9     3    32    1
    10     4    26   ar
    11     4     5   ar
    12     5     6   ar
    13     5    33    1
    14     6     7   ar
    15     6    34    1
    16     7     8   ar
    17     8     9    1
    18     8    26   ar
    19     9    10    2
    20     9    11   am
    21    11    12    1
    22    11    35    1
    23    12    25    1
    24    12    13    2
    25    13    14    1
    26    14    15    1
    27    14    24    1
    28    15    21   ar
    29    15    16   ar
    30    16    17   ar
    31    16    36    1
    32    17    18   ar
    33    17    37    1
    34    18    19    1
    35    18    20   ar
    36    20    21   ar
    37    20    38    1
    38    21    22    1
    39    22    23    3
    40    24    25    2
    41    24    39    1
    42    25    40    1
    43    26    41    1
@<TRIPOS>SUBSTRUCTURE
     1 ZINC000543020509        1 TEMP              0 ****  ****    0 ROOT


##########                                Name:    ZINC000518937710
##########                DOCK_Rotatable_Bonds:                   6
##########                         Heavy_Atoms:                  25
##########                    Molecular_Weight:             397.421
##########                DOCK_Rotatable_Bonds:                   6
##########                       Formal_Charge:          -0.0199997
##########                     HBond_Acceptors:                  11
##########                        HBond_Donors:                   0
##########                         Heavy_Atoms:                  25
##########                          Grid_Score:          -25.789606
##########                     Grid_vdw_energy:          -25.128878
##########                      Grid_es_energy:           -0.660728
##########           Internal_energy_repulsive:           22.755230

@<TRIPOS>MOLECULE
ZINC000518937710
 42 44 1 0 0
SMALL
USER_CHARGES


@<TRIPOS>ATOM
      1 C1        -10.2249    2.0912   56.3768 C.3     1  ZINC000518937710   -0.1900
      2 C2         -9.0744    1.1177   56.6405 C.3     1  ZINC000518937710    0.1700
      3 H3         -9.4493    0.0948   56.6083 H       1  ZINC000518937710    0.1100
      4 C4         -7.9966    1.3000   55.5699 C.3     1  ZINC000518937710   -0.6600
      5 S5         -8.5361    0.5108   54.0282 S.o2    1  ZINC000518937710    2.4000
      6 C6         -7.0015    0.4890   53.0614 C.3     1  ZINC000518937710   -0.6600
      7 O7         -8.9109   -0.8300   54.3130 O.2     1  ZINC000518937710   -0.9200
      8 O8         -9.4664    1.3688   53.3818 O.2     1  ZINC000518937710   -0.9300
      9 N9         -8.5006    1.3860   57.9615 N.am    1  ZINC000518937710   -0.9600
     10 C10        -7.2664    2.1663   58.0794 C.3     1  ZINC000518937710    0.0800
     11 C11        -7.2914    3.6090   57.5706 C.3     1  ZINC000518937710   -0.1800
     12 C12        -7.2576    3.3286   59.0743 C.3     1  ZINC000518937710   -0.1800
     13 S13        -9.2472    0.8071   59.3216 S.o2    1  ZINC000518937710    2.6900
     14 O14        -8.3806    1.0977   60.4097 O.2     1  ZINC000518937710   -0.9400
     15 O15       -10.5947    1.2538   59.2607 O.2     1  ZINC000518937710   -0.9400
     16 C16        -9.2983   -0.9486   59.1813 C.ar    1  ZINC000518937710   -0.6400
     17 C17        -8.1950   -1.7024   59.5357 C.ar    1  ZINC000518937710   -0.0300
     18 C18        -8.2314   -3.0801   59.4270 C.ar    1  ZINC000518937710   -0.1300
     19 C19        -9.3715   -3.7099   58.9639 C.ar    1  ZINC000518937710   -0.0300
     20 C20       -10.4809   -2.9609   58.6068 C.ar    1  ZINC000518937710    0.0200
     21 C21       -10.4461   -1.5733   58.7212 C.ar    1  ZINC000518937710    0.1900
     22 O22       -11.6476   -1.0714   58.3118 O.3     1  ZINC000518937710   -0.2800
     23 C23       -12.2714   -2.1308   57.5621 C.3     1  ZINC000518937710    0.5700
     24 F24       -13.6583   -2.1108   57.7437 F       1  ZINC000518937710   -0.1200
     25 F25       -11.9533   -2.0249   56.2038 F       1  ZINC000518937710   -0.1400
     26 O26       -11.7060   -3.3286   58.1300 O.3     1  ZINC000518937710   -0.2900
     27 H27        -9.8574    3.1151   56.4452 H       1  ZINC000518937710    0.1000
     28 H28       -10.6280    1.9156   55.3795 H       1  ZINC000518937710    0.0800
     29 H29       -11.0089    1.9363   57.1180 H       1  ZINC000518937710    0.0700
     30 H30        -7.8336    2.3636   55.3958 H       1  ZINC000518937710    0.1600
     31 H31        -7.0677    0.8405   55.9075 H       1  ZINC000518937710    0.1400
     32 H32        -6.2730   -0.1575   53.5506 H       1  ZINC000518937710    0.1300
     33 H33        -7.2082    0.1109   52.0601 H       1  ZINC000518937710    0.1300
     34 H34        -6.6012    1.5005   52.9923 H       1  ZINC000518937710    0.1300
     35 H35        -6.3409    1.6041   57.9540 H       1  ZINC000518937710    0.1500
     36 H36        -6.3824    3.9962   57.1103 H       1  ZINC000518937710    0.1100
     37 H37        -8.2262    3.9776   57.1483 H       1  ZINC000518937710    0.1000
     38 H38        -8.1702    3.5126   59.6412 H       1  ZINC000518937710    0.1000
     39 H39        -6.3263    3.5313   59.6033 H       1  ZINC000518937710    0.1000
     40 H40        -7.3025   -1.2139   59.8980 H       1  ZINC000518937710    0.1600
     41 H41        -7.3673   -3.6656   59.7041 H       1  ZINC000518937710    0.1600
     42 H42        -9.3972   -4.7864   58.8799 H       1  ZINC000518937710    0.1500
@<TRIPOS>BOND
     1     1     2    1
     2     1    27    1
     3     1    28    1
     4     1    29    1
     5     2     3    1
     6     2     4    1
     7     2     9    1
     8     4     5    1
     9     4    30    1
    10     4    31    1
    11     5     6    1
    12     5     7    2
    13     5     8    2
    14     6    32    1
    15     6    33    1
    16     6    34    1
    17     9    10    1
    18     9    13   am
    19    10    12    1
    20    10    11    1
    21    10    35    1
    22    11    12    1
    23    11    36    1
    24    11    37    1
    25    12    38    1
    26    12    39    1
    27    13    14    2
    28    13    15    2
    29    13    16    1
    30    16    21   ar
    31    16    17   ar
    32    17    18   ar
    33    17    40    1
    34    18    19   ar
    35    18    41    1
    36    19    20   ar
    37    19    42    1
    38    20    26    1
    39    20    21   ar
    40    21    22    1
    41    22    23    1
    42    23    24    1
    43    23    25    1
    44    23    26    1
@<TRIPOS>SUBSTRUCTURE
     1 ZINC000518937710        1 TEMP              0 ****  ****    0 ROOT


##########                                Name:    ZINC000493443319
##########                DOCK_Rotatable_Bonds:                   6
##########                         Heavy_Atoms:                  25
##########                    Molecular_Weight:             348.399
##########                DOCK_Rotatable_Bonds:                   6
##########                       Formal_Charge:        -3.27826e-07
##########                     HBond_Acceptors:                   7
##########                        HBond_Donors:                   0
##########                         Heavy_Atoms:                  25
##########                          Grid_Score:          -25.779491
##########                     Grid_vdw_energy:          -25.541042
##########                      Grid_es_energy:           -0.238449
##########           Internal_energy_repulsive:           51.334999

@<TRIPOS>MOLECULE
ZINC000493443319
 49 51 1 0 0
SMALL
USER_CHARGES


@<TRIPOS>ATOM
      1 C1         -5.0974    1.8120   49.8610 C.3     1  <0>        -0.1500
      2 C2         -6.5114    1.6317   50.4168 C.3     1  <0>         0.0500
      3 O3         -6.4436    0.9925   51.6930 O.3     1  <0>        -0.3200
      4 C4         -7.6117    0.8490   52.3744 C.ar    1  <0>         0.1000
      5 C5         -8.8221    1.0285   51.7213 C.ar    1  <0>        -0.1700
      6 C6        -10.0086    0.8828   52.4134 C.ar    1  <0>        -0.1100
      7 C7         -9.9895    0.5564   53.7614 C.ar    1  <0>         0.0800
      8 O8        -11.1576    0.4133   54.4427 O.3     1  <0>        -0.3000
      9 C9        -11.5707    1.5106   55.2597 C.3     1  <0>         0.1000
     10 C10       -11.3248    2.8233   54.5131 C.3     1  <0>        -0.1800
     11 C11       -13.0612    1.3765   55.5782 C.3     1  <0>        -0.1500
     12 C12       -10.7805    1.5069   56.5430 C.2     1  <0>         0.5100
     13 O13       -10.2101    2.5135   56.9067 O.2     1  <0>        -0.5200
     14 N14       -10.7078    0.3850   57.2863 N.am    1  <0>        -0.6000
     15 C15       -11.3974   -0.8351   56.8485 C.3     1  <0>         0.0700
     16 C16       -10.3756   -1.9786   56.7430 C.3     1  <0>         0.1300
     17 N17        -9.5536   -1.9467   57.9608 N.am    1  <0>        -0.6300
     18 C18        -9.3062   -2.9376   58.8190 C.2     1  <0>         0.6500
     19 O19        -9.6157   -4.0934   58.6077 O.2     1  <0>        -0.5200
     20 O20        -8.6843   -2.5371   59.9361 O.3     1  <0>        -0.3200
     21 C21        -8.3760   -1.1150   59.8378 C.3     1  <0>         0.0500
     22 C22        -8.8739   -0.7227   58.4373 C.3     1  <0>         0.0800
     23 H23        -8.0488   -0.4406   57.7832 H       1  <0>         0.1100
     24 C24        -9.9322    0.3766   58.5361 C.3     1  <0>         0.1000
     25 C25        -8.7792    0.3755   54.4140 C.ar    1  <0>        -0.1800
     26 C26        -7.5927    0.5175   53.7210 C.ar    1  <0>        -0.1100
     27 H27        -5.1490    2.2996   48.8875 H       1  <0>         0.0800
     28 H28        -4.5137    2.4278   50.5453 H       1  <0>         0.0700
     29 H29        -4.6220    0.8370   49.7541 H       1  <0>         0.0700
     30 H30        -6.9868    2.6068   50.5236 H       1  <0>         0.0600
     31 H31        -7.0950    1.0160   49.7325 H       1  <0>         0.0600
     32 H32        -8.8368    1.2827   50.6717 H       1  <0>         0.1400
     33 H33       -10.9510    1.0233   51.9051 H       1  <0>         0.1400
     34 H34       -11.9935    2.8836   53.6545 H       1  <0>         0.0800
     35 H35       -11.5153    3.6627   55.1817 H       1  <0>         0.0900
     36 H36       -10.2903    2.8585   54.1712 H       1  <0>         0.0800
     37 H37       -13.2500    0.4027   56.0300 H       1  <0>         0.0800
     38 H38       -13.3565    2.1628   56.2728 H       1  <0>         0.0900
     39 H39       -13.6389    1.4685   54.6585 H       1  <0>         0.0900
     40 H40       -12.1666   -1.0993   57.5741 H       1  <0>         0.0800
     41 H41       -11.8561   -0.6650   55.8745 H       1  <0>         0.1300
     42 H42       -10.8950   -2.9343   56.6715 H       1  <0>         0.1100
     43 H43        -9.7447   -1.8322   55.8662 H       1  <0>         0.0800
     44 H44        -8.9106   -0.5542   60.6043 H       1  <0>         0.1100
     45 H45        -7.3017   -0.9502   59.9215 H       1  <0>         0.1100
     46 H46        -9.4473    1.3429   58.6750 H       1  <0>         0.1100
     47 H47       -10.5968    0.1733   59.3758 H       1  <0>         0.0800
     48 H48        -8.7644    0.1210   55.4636 H       1  <0>         0.1600
     49 H49        -6.6503    0.3766   54.2293 H       1  <0>         0.1300
@<TRIPOS>BOND
     1     1     2    1
     2     1    27    1
     3     1    28    1
     4     1    29    1
     5     2     3    1
     6     2    30    1
     7     2    31    1
     8     3     4    1
     9     4    26   ar
    10     4     5   ar
    11     5     6   ar
    12     5    32    1
    13     6     7   ar
    14     6    33    1
    15     7     8    1
    16     7    25   ar
    17     8     9    1
    18     9    10    1
    19     9    11    1
    20     9    12    1
    21    10    34    1
    22    10    35    1
    23    10    36    1
    24    11    37    1
    25    11    38    1
    26    11    39    1
    27    12    13    2
    28    12    14   am
    29    14    24    1
    30    14    15    1
    31    15    16    1
    32    15    40    1
    33    15    41    1
    34    16    17    1
    35    16    42    1
    36    16    43    1
    37    17    22    1
    38    17    18   am
    39    18    19    2
    40    18    20    1
    41    20    21    1
    42    21    22    1
    43    21    44    1
    44    21    45    1
    45    22    23    1
    46    22    24    1
    47    24    46    1
    48    24    47    1
    49    25    26   ar
    50    25    48    1
    51    26    49    1
@<TRIPOS>SUBSTRUCTURE
     1 <0>         1 TEMP              0 ****  ****    0 ROOT


##########                                Name:    ZINC000854500114
##########                DOCK_Rotatable_Bonds:                   7
##########                         Heavy_Atoms:                  24
##########                    Molecular_Weight:             399.288
##########                DOCK_Rotatable_Bonds:                   7
##########                       Formal_Charge:          -0.0399992
##########                     HBond_Acceptors:                   7
##########                        HBond_Donors:                   2
##########                         Heavy_Atoms:                  24
##########                          Grid_Score:          -25.757294
##########                     Grid_vdw_energy:          -25.634041
##########                      Grid_es_energy:           -0.123252
##########           Internal_energy_repulsive:           76.525177

@<TRIPOS>MOLECULE
ZINC000854500114
 47 49 1 0 0
SMALL
USER_CHARGES


@<TRIPOS>ATOM
      1 O1         -7.5031    0.6233   56.4187 O.2     1  ZINC000854500114   -0.5800
      2 C2         -8.2942    1.4970   56.1232 C.2     1  ZINC000854500114    0.6600
      3 N3         -8.6530    1.6740   54.8361 N.am    1  ZINC000854500114   -0.7100
      4 C4         -8.0847    0.8167   53.7927 C.3     1  ZINC000854500114    0.1600
      5 C5         -9.0523    0.7309   52.5943 C.3     1  ZINC000854500114   -0.1400
      6 C6         -8.5353    1.8100   51.6107 C.3     1  ZINC000854500114   -0.1300
      7 C7         -6.9974    1.6962   51.7561 C.3     1  ZINC000854500114   -0.1300
      8 C8         -6.7783    1.4305   53.2598 C.3     1  ZINC000854500114   -0.1300
      9 O9         -8.8164    2.2849   57.0819 O.3     1  ZINC000854500114   -0.3600
     10 C10        -8.5772    1.8933   58.4595 C.3     1  ZINC000854500114    0.1000
     11 C11        -9.4498    0.6850   58.8051 C.3     1  ZINC000854500114    0.1500
     12 H12        -9.1375   -0.1734   58.2105 H       1  ZINC000854500114    0.0900
     13 C13       -10.9172    1.0094   58.5076 C.3     1  ZINC000854500114   -0.1300
     14 C14       -11.7980   -0.1479   58.9841 C.3     1  ZINC000854500114   -0.1200
     15 C15       -11.6392   -0.3231   60.4960 C.3     1  ZINC000854500114   -0.1400
     16 C16       -10.1800   -0.6626   60.8162 C.3     1  ZINC000854500114    0.0900
     17 N17        -9.3123    0.3708   60.2338 N.am    1  ZINC000854500114   -0.6100
     18 C18        -8.4116    1.0211   60.9969 C.2     1  ZINC000854500114    0.5900
     19 O19        -7.6993    1.8744   60.5030 O.2     1  ZINC000854500114   -0.4900
     20 C20        -8.2899    0.6988   62.4276 C.2     1  ZINC000854500114   -0.0300
     21 C21        -8.8174    1.4149   63.4880 C.2     1  ZINC000854500114   -0.1200
     22 C22        -8.4342    0.7140   64.6347 C.2     1  ZINC000854500114    0.0200
     23 Br23       -8.8483    1.1857   66.4186 Br      1  ZINC000854500114    0.0400
     24 N24        -7.7380   -0.3273   64.2545 N.2     1  ZINC000854500114   -0.2400
     25 N25        -7.6389   -0.3702   62.9746 N.pl3   1  ZINC000854500114   -0.3700
     26 H26        -9.2874    2.3689   54.6005 H       1  ZINC000854500114    0.4000
     27 H27        -7.8938   -0.1796   54.1915 H       1  ZINC000854500114    0.0900
     28 H28        -9.0053   -0.2570   52.1361 H       1  ZINC000854500114    0.0800
     29 H29       -10.0708    0.9583   52.9092 H       1  ZINC000854500114    0.0700
     30 H30        -8.8447    1.5827   50.5905 H       1  ZINC000854500114    0.0700
     31 H31        -8.8793    2.8004   51.9082 H       1  ZINC000854500114    0.0700
     32 H32        -6.6186    0.8643   51.1625 H       1  ZINC000854500114    0.0700
     33 H33        -6.5163    2.6282   51.4593 H       1  ZINC000854500114    0.0700
     34 H34        -6.5669    2.3662   53.7775 H       1  ZINC000854500114    0.0700
     35 H35        -5.9534    0.7317   53.3992 H       1  ZINC000854500114    0.0800
     36 H36        -7.5268    1.6309   58.5855 H       1  ZINC000854500114    0.1000
     37 H37        -8.8264    2.7227   59.1214 H       1  ZINC000854500114    0.0700
     38 H38       -11.2014    1.9222   59.0310 H       1  ZINC000854500114    0.0800
     39 H39       -11.0486    1.1488   57.4345 H       1  ZINC000854500114    0.0900
     40 H40       -12.8404    0.0694   58.7513 H       1  ZINC000854500114    0.0800
     41 H41       -11.4969   -1.0654   58.4785 H       1  ZINC000854500114    0.0700
     42 H42       -11.9165    0.6023   61.0008 H       1  ZINC000854500114    0.0700
     43 H43       -12.2844   -1.1322   60.8383 H       1  ZINC000854500114    0.0800
     44 H44       -10.0400   -0.6910   61.8968 H       1  ZINC000854500114    0.0800
     45 H45        -9.9279   -1.6324   60.3874 H       1  ZINC000854500114    0.0800
     46 H46        -9.4008    2.3224   63.4396 H       1  ZINC000854500114    0.1700
     47 H47        -7.1681   -1.0541   62.4731 H       1  ZINC000854500114    0.4500
@<TRIPOS>BOND
     1     1     2    2
     2     2     3   am
     3     2     9    1
     4     3     4    1
     5     3    26    1
     6     4     8    1
     7     4     5    1
     8     4    27    1
     9     5     6    1
    10     5    28    1
    11     5    29    1
    12     6     7    1
    13     6    30    1
    14     6    31    1
    15     7     8    1
    16     7    32    1
    17     7    33    1
    18     8    34    1
    19     8    35    1
    20     9    10    1
    21    10    11    1
    22    10    36    1
    23    10    37    1
    24    11    12    1
    25    11    17    1
    26    11    13    1
    27    13    14    1
    28    13    38    1
    29    13    39    1
    30    14    15    1
    31    14    40    1
    32    14    41    1
    33    15    16    1
    34    15    42    1
    35    15    43    1
    36    16    17    1
    37    16    44    1
    38    16    45    1
    39    17    18   am
    40    18    19    2
    41    18    20    1
    42    20    25    1
    43    20    21    2
    44    21    22    1
    45    21    46    1
    46    22    23    1
    47    22    24    2
    48    24    25    1
    49    25    47    1
@<TRIPOS>SUBSTRUCTURE
     1 ZINC000854500114        1 TEMP              0 ****  ****    0 ROOT


##########                                Name:    ZINC000516003207
##########                DOCK_Rotatable_Bonds:                   5
##########                         Heavy_Atoms:                  24
##########                    Molecular_Weight:             342.462
##########                DOCK_Rotatable_Bonds:                   5
##########                       Formal_Charge:          -0.0200001
##########                     HBond_Acceptors:                   5
##########                        HBond_Donors:                   1
##########                         Heavy_Atoms:                  24
##########                          Grid_Score:          -25.699610
##########                     Grid_vdw_energy:          -25.939714
##########                      Grid_es_energy:            0.240104
##########           Internal_energy_repulsive:            9.583659

@<TRIPOS>MOLECULE
ZINC000516003207
 46 49 1 0 0
SMALL
USER_CHARGES


@<TRIPOS>ATOM
      1 C1        -15.2064   -3.3061   58.5372 C.3     1  ZINC000516003207    0.0300
      2 O2        -13.9014   -2.7637   58.7492 O.3     1  ZINC000516003207   -0.3600
      3 C3        -13.0474   -2.8404   57.6061 C.3     1  ZINC000516003207    0.0900
      4 H4        -13.1541   -3.7772   57.0593 H       1  ZINC000516003207    0.0800
      5 C5        -13.1034   -1.5911   56.7081 C.3     1  ZINC000516003207   -0.1700
      6 C6        -11.9630   -1.0131   57.5658 C.3     1  ZINC000516003207    0.1500
      7 H7        -12.3096   -0.4410   58.4264 H       1  ZINC000516003207    0.1200
      8 N8        -10.9410   -0.3087   56.7876 N.am    1  ZINC000516003207   -0.7200
      9 C9        -10.0757    0.5197   57.4053 C.2     1  ZINC000516003207    0.5600
     10 O10       -10.1422    0.6811   58.6082 O.2     1  ZINC000516003207   -0.5300
     11 C11        -9.0452    1.2320   56.6197 C.ar    1  ZINC000516003207   -0.1400
     12 C12        -8.2986    2.2542   57.2087 C.ar    1  ZINC000516003207   -0.0800
     13 C13        -7.3366    2.9199   56.4753 C.ar    1  ZINC000516003207   -0.1200
     14 C14        -7.1067    2.5794   55.1569 C.ar    1  ZINC000516003207   -0.0800
     15 C15        -7.8456    1.5598   54.5570 C.ar    1  ZINC000516003207   -0.0300
     16 C16        -7.5965    1.1962   53.1405 C.2     1  ZINC000516003207    0.1100
     17 C17        -8.3430    0.2937   52.4725 C.2     1  ZINC000516003207   -0.2600
     18 S18        -7.7053    0.1703   50.8349 S.3     1  ZINC000516003207    0.1400
     19 C19        -6.5068    1.3327   51.2001 C.2     1  ZINC000516003207    0.0600
     20 C20        -5.4626    1.8239   50.2307 C.3     1  ZINC000516003207   -0.0800
     21 N21        -6.6241    1.7340   52.4184 N.2     1  ZINC000516003207   -0.4700
     22 C22        -8.8128    0.8809   55.2909 C.ar    1  ZINC000516003207   -0.0300
     23 C23       -11.5950   -2.4626   57.8987 C.3     1  ZINC000516003207   -0.1100
     24 C24       -10.9349   -2.8251   59.2295 C.3     1  ZINC000516003207   -0.1200
     25 C25       -10.2654   -3.9916   58.4805 C.3     1  ZINC000516003207   -0.1400
     26 C26       -10.4357   -3.1662   57.1922 C.3     1  ZINC000516003207   -0.1200
     27 H27       -15.1229   -4.3591   58.2683 H       1  ZINC000516003207    0.0400
     28 H28       -15.7927   -3.2100   59.4511 H       1  ZINC000516003207    0.0900
     29 H29       -15.6990   -2.7630   57.7307 H       1  ZINC000516003207    0.0400
     30 H30       -12.8167   -1.7840   55.6743 H       1  ZINC000516003207    0.0900
     31 H31       -14.0371   -1.0351   56.7922 H       1  ZINC000516003207    0.0800
     32 H32       -10.8870   -0.4385   55.8278 H       1  ZINC000516003207    0.4000
     33 H33        -8.4738    2.5248   58.2394 H       1  ZINC000516003207    0.1300
     34 H34        -6.7617    3.7105   56.9347 H       1  ZINC000516003207    0.1400
     35 H35        -6.3531    3.1043   54.5885 H       1  ZINC000516003207    0.1300
     36 H36        -9.1828   -0.2561   52.8709 H       1  ZINC000516003207    0.1800
     37 H37        -5.5938    1.3236   49.2712 H       1  ZINC000516003207    0.0800
     38 H38        -5.5689    2.9004   50.0968 H       1  ZINC000516003207    0.0900
     39 H39        -4.4699    1.6028   50.6230 H       1  ZINC000516003207    0.0900
     40 H40        -9.3874    0.0907   54.8305 H       1  ZINC000516003207    0.1500
     41 H41       -10.2310   -2.0738   59.5877 H       1  ZINC000516003207    0.0800
     42 H42       -11.6414   -3.1449   59.9955 H       1  ZINC000516003207    0.0800
     43 H43        -9.2246   -4.1505   58.7621 H       1  ZINC000516003207    0.0700
     44 H44       -10.8522   -4.9102   58.4906 H       1  ZINC000516003207    0.0800
     45 H45       -10.7435   -3.7586   56.3305 H       1  ZINC000516003207    0.0700
     46 H46        -9.5916   -2.5108   56.9777 H       1  ZINC000516003207    0.0900
@<TRIPOS>BOND
     1     1     2    1
     2     1    27    1
     3     1    28    1
     4     1    29    1
     5     2     3    1
     6     3     4    1
     7     3    23    1
     8     3     5    1
     9     5     6    1
    10     5    30    1
    11     5    31    1
    12     6     7    1
    13     6     8    1
    14     6    23    1
    15     8     9   am
    16     8    32    1
    17     9    10    2
    18     9    11    1
    19    11    22   ar
    20    11    12   ar
    21    12    13   ar
    22    12    33    1
    23    13    14   ar
    24    13    34    1
    25    14    15   ar
    26    14    35    1
    27    15    16    1
    28    15    22   ar
    29    16    21    1
    30    16    17    2
    31    17    18    1
    32    17    36    1
    33    18    19    1
    34    19    20    1
    35    19    21    2
    36    20    37    1
    37    20    38    1
    38    20    39    1
    39    22    40    1
    40    23    26    1
    41    23    24    1
    42    24    25    1
    43    24    41    1
    44    24    42    1
    45    25    26    1
    46    25    43    1
    47    25    44    1
    48    26    45    1
    49    26    46    1
@<TRIPOS>SUBSTRUCTURE
     1 ZINC000516003207        1 TEMP              0 ****  ****    0 ROOT


##########                                Name:    ZINC000331626032
##########                DOCK_Rotatable_Bonds:                   5
##########                         Heavy_Atoms:                  25
##########                    Molecular_Weight:              339.44
##########                DOCK_Rotatable_Bonds:                   5
##########                       Formal_Charge:        -2.16067e-07
##########                     HBond_Acceptors:                   6
##########                        HBond_Donors:                   2
##########                         Heavy_Atoms:                  25
##########                          Grid_Score:          -25.674156
##########                     Grid_vdw_energy:          -25.298393
##########                      Grid_es_energy:           -0.375764
##########           Internal_energy_repulsive:           29.067724

@<TRIPOS>MOLECULE
ZINC000331626032
 50 52 1 0 0
SMALL
USER_CHARGES


@<TRIPOS>ATOM
      1 C1         -8.3807    2.9207   55.6084 C.3     1  ZINC000331626032   -0.2000
      2 C2         -8.0773    1.5252   55.0591 C.3     1  ZINC000331626032    0.0700
      3 H3         -7.1027    1.1967   55.4201 H       1  ZINC000331626032    0.1100
      4 C4         -9.1370    0.5606   55.5254 C.2     1  ZINC000331626032    0.5200
      5 O5         -9.9553    0.1322   54.7393 O.2     1  ZINC000331626032   -0.5000
      6 N6         -9.1754    0.1738   56.8158 N.am    1  ZINC000331626032   -0.5800
      7 C7         -8.1870    0.6912   57.7653 C.3     1  ZINC000331626032    0.0800
      8 C8        -10.1594   -0.7220   57.2488 C.ar    1  ZINC000331626032    0.1400
      9 C9        -10.3459   -1.9260   56.5823 C.ar    1  ZINC000331626032   -0.1000
     10 C10       -11.3179   -2.8081   57.0122 C.ar    1  ZINC000331626032   -0.1100
     11 C11       -12.1053   -2.4931   58.1043 C.ar    1  ZINC000331626032   -0.1200
     12 C12       -11.9223   -1.2948   58.7698 C.ar    1  ZINC000331626032   -0.1100
     13 C13       -10.9475   -0.4115   58.3491 C.ar    1  ZINC000331626032   -0.1200
     14 N14        -8.0665    1.5687   53.5908 N.3     1  ZINC000331626032   -0.5100
     15 C15        -9.0502    2.5349   53.0856 C.3     1  ZINC000331626032    0.0500
     16 C16        -9.1144    2.4487   51.5591 C.3     1  ZINC000331626032   -0.1100
     17 C17        -7.7304    2.7497   50.9771 C.3     1  ZINC000331626032   -0.1100
     18 C18        -6.7158    1.7600   51.5563 C.3     1  ZINC000331626032   -0.0400
     19 H19        -6.9867    0.7463   51.2609 H       1  ZINC000331626032    0.1000
     20 C20        -5.3403    2.0856   51.0334 C.ar    1  ZINC000331626032    0.2300
     21 C21        -4.6537    3.1920   51.5076 C.ar    1  ZINC000331626032   -0.2900
     22 C22        -3.3910    3.4559   51.0000 C.ar    1  ZINC000331626032    0.1900
     23 N23        -2.8821    2.6489   50.0840 N.ar    1  ZINC000331626032   -0.5700
     24 C24        -3.5653    1.5989   49.6518 C.ar    1  ZINC000331626032    0.5700
     25 N25        -3.0023    0.7750   48.6926 N.pl3   1  ZINC000331626032   -0.8200
     26 N26        -4.7717    1.3158   50.1202 N.ar    1  ZINC000331626032   -0.5700
     27 C27        -6.7211    1.8660   53.0829 C.3     1  ZINC000331626032    0.0700
     28 H28        -9.3553    3.2492   55.2474 H       1  ZINC000331626032    0.0700
     29 H29        -8.3887    2.8885   56.6979 H       1  ZINC000331626032    0.0800
     30 H30        -7.6142    3.6185   55.2711 H       1  ZINC000331626032    0.0700
     31 H31        -8.5639    1.6081   58.2187 H       1  ZINC000331626032    0.0600
     32 H32        -8.0068   -0.0512   58.5429 H       1  ZINC000331626032    0.0800
     33 H33        -7.2550    0.9017   57.2409 H       1  ZINC000331626032    0.0800
     34 H34        -9.7317   -2.1723   55.7288 H       1  ZINC000331626032    0.1200
     35 H35       -11.4636   -3.7445   56.4942 H       1  ZINC000331626032    0.1300
     36 H36       -12.8650   -3.1844   58.4383 H       1  ZINC000331626032    0.1300
     37 H37       -12.5393   -1.0514   59.6222 H       1  ZINC000331626032    0.1300
     38 H38       -10.8051    0.5243   58.8692 H       1  ZINC000331626032    0.1200
     39 H39       -10.0308    2.3071   53.5037 H       1  ZINC000331626032    0.0900
     40 H40        -8.7548    3.5418   53.3805 H       1  ZINC000331626032    0.0300
     41 H41        -9.4231    1.4460   51.2637 H       1  ZINC000331626032    0.0800
     42 H42        -9.8333    3.1769   51.1833 H       1  ZINC000331626032    0.0700
     43 H43        -7.7611    2.6470   49.8925 H       1  ZINC000331626032    0.0700
     44 H44        -7.4381    3.7664   51.2396 H       1  ZINC000331626032    0.0700
     45 H45        -5.0930    3.8350   52.2560 H       1  ZINC000331626032    0.1400
     46 H46        -2.8295    4.3104   51.3482 H       1  ZINC000331626032    0.1700
     47 H47        -2.1179    0.9692   48.3450 H       1  ZINC000331626032    0.4100
     48 H48        -3.4923    0.0033   48.3682 H       1  ZINC000331626032    0.4100
     49 H49        -6.4366    2.8761   53.3778 H       1  ZINC000331626032    0.0400
     50 H50        -6.0099    1.1524   53.4992 H       1  ZINC000331626032    0.0800
@<TRIPOS>BOND
     1     1     2    1
     2     1    28    1
     3     1    29    1
     4     1    30    1
     5     2     3    1
     6     2     4    1
     7     2    14    1
     8     4     5    2
     9     4     6   am
    10     6     7    1
    11     6     8    1
    12     7    31    1
    13     7    32    1
    14     7    33    1
    15     8    13   ar
    16     8     9   ar
    17     9    10   ar
    18     9    34    1
    19    10    11   ar
    20    10    35    1
    21    11    12   ar
    22    11    36    1
    23    12    13   ar
    24    12    37    1
    25    13    38    1
    26    14    27    1
    27    14    15    1
    28    15    16    1
    29    15    39    1
    30    15    40    1
    31    16    17    1
    32    16    41    1
    33    16    42    1
    34    17    18    1
    35    17    43    1
    36    17    44    1
    37    18    19    1
    38    18    20    1
    39    18    27    1
    40    20    26   ar
    41    20    21   ar
    42    21    22   ar
    43    21    45    1
    44    22    23   ar
    45    22    46    1
    46    23    24   ar
    47    24    25    1
    48    24    26   ar
    49    25    47    1
    50    25    48    1
    51    27    49    1
    52    27    50    1
@<TRIPOS>SUBSTRUCTURE
     1 ZINC000331626032        1 TEMP              0 ****  ****    0 ROOT


##########                                Name:    ZINC000845755710
##########                DOCK_Rotatable_Bonds:                   3
##########                         Heavy_Atoms:                  24
##########                    Molecular_Weight:             349.814
##########                DOCK_Rotatable_Bonds:                   3
##########                       Formal_Charge:         -0.00999974
##########                     HBond_Acceptors:                   6
##########                        HBond_Donors:                   0
##########                         Heavy_Atoms:                  24
##########                          Grid_Score:          -25.662121
##########                     Grid_vdw_energy:          -25.771008
##########                      Grid_es_energy:            0.108887
##########           Internal_energy_repulsive:           24.603214

@<TRIPOS>MOLECULE
ZINC000845755710
 44 47 1 0 0
SMALL
USER_CHARGES


@<TRIPOS>ATOM
      1 C1         -8.1657    1.1968   55.5361 C.3     1  ZINC000845755710   -0.1700
      2 C2         -8.9977    0.4781   54.4719 C.3     1  ZINC000845755710    0.2600
      3 C3         -8.6303    1.0113   53.0857 C.3     1  ZINC000845755710   -0.0900
      4 C4         -8.7361    2.5381   53.0822 C.3     1  ZINC000845755710   -0.1300
      5 C5         -8.4012    3.0659   51.6836 C.3     1  ZINC000845755710    0.1100
      6 N6         -7.0833    2.5515   51.2871 N.am    1  ZINC000845755710   -0.6000
      7 C7         -6.1112    3.3926   50.8821 C.2     1  ZINC000845755710    0.5900
      8 O8         -6.3209    4.5903   50.8424 O.2     1  ZINC000845755710   -0.5200
      9 C9         -4.7971    2.8626   50.4882 C.2     1  ZINC000845755710   -0.2200
     10 C10        -4.5426    1.9134   49.5472 C.2     1  ZINC000845755710    0.0600
     11 O11        -3.2252    1.6929   49.4686 O.3     1  ZINC000845755710   -0.1800
     12 C12        -2.5445    2.4693   50.3373 C.ar    1  ZINC000845755710    0.0500
     13 C13        -1.1935    2.6076   50.6294 C.ar    1  ZINC000845755710   -0.0900
     14 C14        -0.7849    3.5056   51.5926 C.ar    1  ZINC000845755710   -0.0800
     15 C15        -1.7119    4.2774   52.2782 C.ar    1  ZINC000845755710   -0.0400
     16 Cl16       -1.1767    5.4019   53.4877 Cl      1  ZINC000845755710   -0.0600
     17 C17        -3.0580    4.1539   52.0010 C.ar    1  ZINC000845755710   -0.0500
     18 C18        -3.4795    3.2548   51.0274 C.ar    1  ZINC000845755710   -0.0900
     19 C19        -6.8450    1.1027   51.3410 C.3     1  ZINC000845755710    0.1000
     20 C20        -7.1974    0.5969   52.7434 C.3     1  ZINC000845755710   -0.1300
     21 O21        -8.7369   -0.9344   54.5276 O.3     1  ZINC000845755710   -0.3700
     22 C22        -9.7947   -1.4738   55.3562 C.3     1  ZINC000845755710    0.0100
     23 C23       -10.9979   -0.5882   54.9465 C.3     1  ZINC000845755710    0.0200
     24 O24       -10.3922    0.7004   54.7195 O.3     1  ZINC000845755710   -0.3800
     25 H25        -8.4333    0.8189   56.5229 H       1  ZINC000845755710    0.0600
     26 H26        -7.1066    1.0158   55.3526 H       1  ZINC000845755710    0.0800
     27 H27        -8.3646    2.2676   55.4907 H       1  ZINC000845755710    0.0800
     28 H28        -9.3147    0.5983   52.3447 H       1  ZINC000845755710    0.0900
     29 H29        -9.7510    2.8330   53.3490 H       1  ZINC000845755710    0.0800
     30 H30        -8.0342    2.9531   53.8055 H       1  ZINC000845755710    0.0800
     31 H31        -9.1551    2.7249   50.9741 H       1  ZINC000845755710    0.0700
     32 H32        -8.3783    4.1555   51.7001 H       1  ZINC000845755710    0.1000
     33 H33        -5.2922    1.4124   48.9526 H       1  ZINC000845755710    0.2200
     34 H34        -0.4632    2.0114   50.1025 H       1  ZINC000845755710    0.1500
     35 H35         0.2667    3.6090   51.8157 H       1  ZINC000845755710    0.1500
     36 H36        -3.7798    4.7546   52.5346 H       1  ZINC000845755710    0.1400
     37 H37        -7.4721    0.6015   50.6036 H       1  ZINC000845755710    0.0800
     38 H38        -5.7953    0.8969   51.1314 H       1  ZINC000845755710    0.0900
     39 H39        -6.5099    1.0301   53.4698 H       1  ZINC000845755710    0.0700
     40 H40        -7.1171   -0.4899   52.7690 H       1  ZINC000845755710    0.0800
     41 H41        -9.9816   -2.5208   55.1177 H       1  ZINC000845755710    0.1100
     42 H42        -9.5625   -1.3515   56.4141 H       1  ZINC000845755710    0.0800
     43 H43       -11.4589   -0.9636   54.0328 H       1  ZINC000845755710    0.0800
     44 H44       -11.7285   -0.5337   55.7535 H       1  ZINC000845755710    0.1000
@<TRIPOS>BOND
     1     1     2    1
     2     1    25    1
     3     1    26    1
     4     1    27    1
     5     2    24    1
     6     2     3    1
     7     2    21    1
     8     3    20    1
     9     3     4    1
    10     3    28    1
    11     4     5    1
    12     4    29    1
    13     4    30    1
    14     5     6    1
    15     5    31    1
    16     5    32    1
    17     6     7   am
    18     6    19    1
    19     7     8    2
    20     7     9    1
    21     9    18    1
    22     9    10    2
    23    10    11    1
    24    10    33    1
    25    11    12    1
    26    12    18   ar
    27    12    13   ar
    28    13    14   ar
    29    13    34    1
    30    14    15   ar
    31    14    35    1
    32    15    16    1
    33    15    17   ar
    34    17    18   ar
    35    17    36    1
    36    19    20    1
    37    19    37    1
    38    19    38    1
    39    20    39    1
    40    20    40    1
    41    21    22    1
    42    22    23    1
    43    22    41    1
    44    22    42    1
    45    23    24    1
    46    23    43    1
    47    23    44    1
@<TRIPOS>SUBSTRUCTURE
     1 ZINC000845755710        1 TEMP              0 ****  ****    0 ROOT


##########                                Name:      oleObject5.pdb
##########                DOCK_Rotatable_Bonds:                   5
##########                         Heavy_Atoms:                  24
##########                    Molecular_Weight:             323.438
##########                DOCK_Rotatable_Bonds:                   5
##########                       Formal_Charge:         0.000200074
##########                     HBond_Acceptors:                   4
##########                        HBond_Donors:                   2
##########                         Heavy_Atoms:                  24
##########                          Grid_Score:          -25.627716
##########                     Grid_vdw_energy:          -25.461239
##########                      Grid_es_energy:           -0.166477
##########           Internal_energy_repulsive:           13.130507

@<TRIPOS>MOLECULE
oleObject5.pdb
 49 51 1 0 0
SMALL
NO_CHARGES


@<TRIPOS>ATOM
      1 C         -13.3901    1.2903   57.4355 C.3     1  UNL        -0.0394
      2 C         -12.4790    0.5700   56.4462 C.ar    1  UNL        -0.0456
      3 C         -12.3036    1.1458   55.1725 C.ar    1  UNL        -0.0590
      4 C         -11.4977    0.5263   54.2070 C.ar    1  UNL        -0.0620
      5 C         -10.8608   -0.6843   54.5056 C.ar    1  UNL        -0.0619
      6 C         -11.0295   -1.2687   55.7688 C.ar    1  UNL        -0.0565
      7 C         -11.8284   -0.6531   56.7558 C.ar    1  UNL        -0.0188
      8 C         -11.9938   -1.3624   58.1067 C.3     1  UNL         0.0906
      9 N         -13.1187   -2.3110   58.0271 N.am    1  UNL        -0.3025
     10 C         -14.0561   -2.4556   59.0340 C.2     1  UNL         0.2156
     11 O         -14.1096   -1.6918   59.9825 O.2     1  UNL        -0.2774
     12 C         -15.1411   -3.5066   58.7314 C.3     1  UNL         0.0382
     13 C         -14.7808   -4.3528   57.4810 C.3     1  UNL        -0.0292
     14 C         -14.9717   -3.5526   56.1741 C.3     1  UNL        -0.0041
     15 N         -16.3496   -3.0420   56.0718 N.4     1  UNL        -0.3167
     16 C         -16.7365   -2.1729   57.1975 C.3     1  UNL        -0.0041
     17 C         -16.5551   -2.8865   58.5609 C.3     1  UNL        -0.0292
     18 C         -10.6845   -2.0245   58.5693 C.ar    1  UNL         0.0681
     19 N         -10.5750   -3.3597   58.3641 N.ar    1  UNL        -0.2587
     20 C          -9.4494   -3.9961   58.7387 C.ar    1  UNL         0.0272
     21 C          -8.3682   -3.3322   59.3362 C.ar    1  UNL        -0.0435
     22 C          -8.4647   -1.9499   59.5501 C.ar    1  UNL        -0.0559
     23 C          -9.6378   -1.2749   59.1628 C.ar    1  UNL        -0.0272
     24 C          -9.7392    0.2287   59.3869 C.3     1  UNL        -0.0379
     25 H         -13.6826    2.2812   57.0665 H       1  UNL         0.0280
     26 H         -12.9011    1.4450   58.4036 H       1  UNL         0.0280
     27 H         -14.3137    0.7259   57.6034 H       1  UNL         0.0280
     28 H         -12.8001    2.0799   54.9243 H       1  UNL         0.0626
     29 H         -11.3727    0.9810   53.2285 H       1  UNL         0.0623
     30 H         -10.2409   -1.1721   53.7587 H       1  UNL         0.0623
     31 H         -10.5378   -2.2143   55.9770 H       1  UNL         0.0627
     32 H         -12.2566   -0.6292   58.8750 H       1  UNL         0.0624
     33 H         -13.4161   -2.5593   57.0926 H       1  UNL         0.1504
     34 H         -15.1712   -4.1773   59.5999 H       1  UNL         0.0402
     35 H         -15.4285   -5.2385   57.4499 H       1  UNL         0.0288
     36 H         -13.7504   -4.7245   57.5429 H       1  UNL         0.0288
     37 H         -14.7514   -4.1989   55.3152 H       1  UNL         0.0428
     38 H         -14.2625   -2.7148   56.1530 H       1  UNL         0.0428
     39 H         -16.9908   -3.8333   56.0305 H       1  UNL         0.1222
     40 H         -17.7843   -1.8676   57.0845 H       1  UNL         0.0428
     41 H         -16.1265   -1.2613   57.1769 H       1  UNL         0.0428
     42 H         -17.3018   -3.6876   58.6350 H       1  UNL         0.0288
     43 H         -16.7648   -2.1875   59.3808 H       1  UNL         0.0288
     44 H          -9.4143   -5.0690   58.5539 H       1  UNL         0.0840
     45 H          -7.4748   -3.8776   59.6253 H       1  UNL         0.0639
     46 H          -7.6393   -1.4125   60.0084 H       1  UNL         0.0627
     47 H          -8.8317    0.6295   59.8556 H       1  UNL         0.0280
     48 H         -10.5810    0.4746   60.0457 H       1  UNL         0.0280
     49 H          -9.8765    0.7605   58.4377 H       1  UNL         0.0280
@<TRIPOS>BOND
     1     1     2    1
     2     1    25    1
     3     1    26    1
     4     1    27    1
     5     2     3   ar
     6     2     7   ar
     7     3     4   ar
     8     3    28    1
     9     4     5   ar
    10     4    29    1
    11     5     6   ar
    12     5    30    1
    13     6     7   ar
    14     6    31    1
    15     7     8    1
    16     8     9    1
    17     8    18    1
    18     8    32    1
    19     9    10   am
    20     9    33    1
    21    10    11    2
    22    10    12    1
    23    12    13    1
    24    12    17    1
    25    12    34    1
    26    13    14    1
    27    13    35    1
    28    13    36    1
    29    14    15    1
    30    14    37    1
    31    14    38    1
    32    15    16    1
    33    15    39    1
    34    16    17    1
    35    16    40    1
    36    16    41    1
    37    17    42    1
    38    17    43    1
    39    18    19   ar
    40    18    23   ar
    41    19    20   ar
    42    20    21   ar
    43    20    44    1
    44    21    22   ar
    45    21    45    1
    46    22    23   ar
    47    22    46    1
    48    23    24    1
    49    24    47    1
    50    24    48    1
    51    24    49    1
@<TRIPOS>SUBSTRUCTURE
     1 UNL         1 TEMP              0 ****  ****    0 ROOT


##########                                Name:    ZINC000656860804
##########                DOCK_Rotatable_Bonds:                   2
##########                         Heavy_Atoms:                  19
##########                    Molecular_Weight:             388.068
##########                DOCK_Rotatable_Bonds:                   2
##########                       Formal_Charge:          8.9407e-08
##########                     HBond_Acceptors:                   8
##########                        HBond_Donors:                   1
##########                         Heavy_Atoms:                  19
##########                          Grid_Score:          -25.622444
##########                     Grid_vdw_energy:          -25.125088
##########                      Grid_es_energy:           -0.497356
##########           Internal_energy_repulsive:           17.470697

@<TRIPOS>MOLECULE
ZINC000656860804
 28 29 1 0 0
SMALL
USER_CHARGES


@<TRIPOS>ATOM
      1 O1         -8.0923   -0.6373   53.2215 O.2     1  ZINC000656860804   -0.5400
      2 C2         -8.0599    0.5313   52.8987 C.2     1  ZINC000656860804    0.5100
      3 C3         -6.7871    1.0790   52.3130 C.3     1  ZINC000656860804    0.1100
      4 N4         -7.0633    2.3970   51.7224 N.am    1  ZINC000656860804   -1.0000
      5 S5         -6.4354    2.8313   50.2528 S.o2    1  ZINC000656860804    2.6900
      6 O6         -6.8039    1.8063   49.3403 O.2     1  ZINC000656860804   -0.9200
      7 O7         -6.7701    4.1991   50.0618 O.2     1  ZINC000656860804   -0.9300
      8 C8         -4.6805    2.7637   50.3949 C.ar    1  ZINC000656860804   -0.6500
      9 C9         -3.9588    1.8732   49.6229 C.ar    1  ZINC000656860804    0.0100
     10 C10        -2.5808    1.8197   49.7341 C.ar    1  ZINC000656860804   -0.0400
     11 Cl11       -1.6743    0.7013   48.7640 Cl      1  ZINC000656860804   -0.0200
     12 C12        -1.9250    2.6586   50.6189 C.ar    1  ZINC000656860804    0.0200
     13 Cl13       -0.1958    2.5926   50.7586 Cl      1  ZINC000656860804   -0.0100
     14 C14        -2.6481    3.5498   51.3912 C.ar    1  ZINC000656860804   -0.0900
     15 C15        -4.0250    3.6063   51.2750 C.ar    1  ZINC000656860804    0.0100
     16 Br16       -5.0135    4.8245   52.3307 Br      1  ZINC000656860804    0.0100
     17 C17        -7.9213    3.3149   52.4904 C.3     1  ZINC000656860804    0.0900
     18 C18        -9.2933    2.6589   52.6574 C.3     1  ZINC000656860804    0.0800
     19 N19        -9.1563    1.2704   53.0741 N.am    1  ZINC000656860804   -0.7100
     20 H20        -6.0380    1.1806   53.0984 H       1  ZINC000656860804    0.1200
     21 H21        -6.4197    0.4028   51.5412 H       1  ZINC000656860804    0.1200
     22 H22        -4.4707    1.2185   48.9331 H       1  ZINC000656860804    0.1700
     23 H23        -2.1370    4.2042   52.0818 H       1  ZINC000656860804    0.1700
     24 H24        -7.4797    3.4982   53.4700 H       1  ZINC000656860804    0.1000
     25 H25        -8.0270    4.2568   51.9521 H       1  ZINC000656860804    0.1200
     26 H26        -9.8639    3.2065   53.4075 H       1  ZINC000656860804    0.1000
     27 H27        -9.8256    2.6938   51.7068 H       1  ZINC000656860804    0.0800
     28 H28        -9.9136    0.8554   53.5160 H       1  ZINC000656860804    0.4000
@<TRIPOS>BOND
     1     1     2    2
     2     2    19   am
     3     2     3    1
     4     3     4    1
     5     3    20    1
     6     3    21    1
     7     4     5   am
     8     4    17    1
     9     5     6    2
    10     5     7    2
    11     5     8    1
    12     8    15   ar
    13     8     9   ar
    14     9    10   ar
    15     9    22    1
    16    10    11    1
    17    10    12   ar
    18    12    13    1
    19    12    14   ar
    20    14    15   ar
    21    14    23    1
    22    15    16    1
    23    17    18    1
    24    17    24    1
    25    17    25    1
    26    18    19    1
    27    18    26    1
    28    18    27    1
    29    19    28    1
@<TRIPOS>SUBSTRUCTURE
     1 ZINC000656860804        1 TEMP              0 ****  ****    0 ROOT


##########                                Name:    ZINC000098105561
##########                DOCK_Rotatable_Bonds:                   5
##########                         Heavy_Atoms:                  25
##########                    Molecular_Weight:             368.336
##########                DOCK_Rotatable_Bonds:                   5
##########                       Formal_Charge:         2.98023e-08
##########                     HBond_Acceptors:                   9
##########                        HBond_Donors:                   0
##########                         Heavy_Atoms:                  25
##########                          Grid_Score:          -25.525314
##########                     Grid_vdw_energy:          -26.060095
##########                      Grid_es_energy:            0.534781
##########           Internal_energy_repulsive:           11.410224

@<TRIPOS>MOLECULE
ZINC000098105561
 36 38 1 0 0
SMALL
USER_CHARGES


@<TRIPOS>ATOM
      1 C1        -15.8483   -2.1211   59.0878 C.3     1  ZINC000098105561   -0.0800
      2 C2        -14.8130   -2.7636   58.2012 C.2     1  ZINC000098105561    0.0900
      3 C3        -14.9369   -4.0071   57.7313 C.2     1  ZINC000098105561   -0.2700
      4 S4        -13.5202   -4.3623   56.7460 S.3     1  ZINC000098105561    0.1600
      5 C5        -12.8969   -2.8019   57.0616 C.2     1  ZINC000098105561    0.2500
      6 N6        -11.6948   -2.3118   56.5705 N.am    1  ZINC000098105561   -0.5200
      7 C7        -10.4287   -2.9061   57.0063 C.3     1  ZINC000098105561    0.0500
      8 C8        -10.2105   -2.6093   58.4912 C.3     1  ZINC000098105561    0.4400
      9 F9         -8.9554   -3.0876   58.8829 F       1  ZINC000098105561   -0.1700
     10 F10       -10.2703   -1.2279   58.7045 F       1  ZINC000098105561   -0.1700
     11 F11       -11.2060   -3.2409   59.2442 F       1  ZINC000098105561   -0.1700
     12 C12       -11.6924   -1.2891   55.6926 C.2     1  ZINC000098105561    0.5800
     13 O13       -12.7426   -0.7961   55.3312 O.2     1  ZINC000098105561   -0.4100
     14 C14       -10.4097   -0.7660   55.1685 C.2     1  ZINC000098105561    0.0800
     15 C15        -9.6899    0.0831   55.9426 C.2     1  ZINC000098105561   -0.2000
     16 C16        -8.4239    0.6111   55.4064 C.2     1  ZINC000098105561    0.4200
     17 O17        -7.6163    1.1910   56.1107 O.2     1  ZINC000098105561   -0.4300
     18 C18        -8.1916    0.3954   53.9639 C.ar    1  ZINC000098105561   -0.2200
     19 C19        -7.1713    1.0567   53.2838 C.ar    1  ZINC000098105561   -0.0300
     20 C20        -6.9955    0.8289   51.9362 C.ar    1  ZINC000098105561   -0.1400
     21 C21        -7.8292   -0.0519   51.2621 C.ar    1  ZINC000098105561   -0.0500
     22 C22        -8.8405   -0.7136   51.9245 C.ar    1  ZINC000098105561   -0.1400
     23 C23        -9.0346   -0.5025   53.2856 C.ar    1  ZINC000098105561    0.1400
     24 O24       -10.0070   -1.1563   53.9515 O.3     1  ZINC000098105561   -0.2300
     25 N25       -13.7133   -2.1410   57.8220 N.2     1  ZINC000098105561   -0.4600
     26 H26       -16.5866   -1.6080   58.4714 H       1  ZINC000098105561    0.0800
     27 H27       -16.3428   -2.8881   59.6839 H       1  ZINC000098105561    0.0800
     28 H28       -15.3647   -1.4023   59.7492 H       1  ZINC000098105561    0.0800
     29 H29       -15.7613   -4.6781   57.9222 H       1  ZINC000098105561    0.1900
     30 H30       -10.4616   -3.9847   56.8523 H       1  ZINC000098105561    0.1700
     31 H31        -9.6093   -2.4811   56.4266 H       1  ZINC000098105561    0.1400
     32 H32       -10.0357    0.3651   56.9261 H       1  ZINC000098105561    0.1800
     33 H33        -6.5233    1.7431   53.8086 H       1  ZINC000098105561    0.1400
     34 H34        -6.2063    1.3380   51.4027 H       1  ZINC000098105561    0.1400
     35 H35        -7.6842   -0.2207   50.2052 H       1  ZINC000098105561    0.1400
     36 H36        -9.4820   -1.3964   51.3870 H       1  ZINC000098105561    0.1400
@<TRIPOS>BOND
     1     1     2    1
     2     1    26    1
     3     1    27    1
     4     1    28    1
     5     2    25    1
     6     2     3    2
     7     3     4    1
     8     3    29    1
     9     4     5    1
    10     5     6    1
    11     5    25    2
    12     6     7    1
    13     6    12   am
    14     7     8    1
    15     7    30    1
    16     7    31    1
    17     8     9    1
    18     8    10    1
    19     8    11    1
    20    12    13    2
    21    12    14    1
    22    14    24    1
    23    14    15    2
    24    15    16    1
    25    15    32    1
    26    16    17    2
    27    16    18    1
    28    18    23   ar
    29    18    19   ar
    30    19    20   ar
    31    19    33    1
    32    20    21   ar
    33    20    34    1
    34    21    22   ar
    35    21    35    1
    36    22    23   ar
    37    22    36    1
    38    23    24    1
@<TRIPOS>SUBSTRUCTURE
     1 ZINC000098105561        1 TEMP              0 ****  ****    0 ROOT


##########                                Name:    ZINC000632456679
##########                DOCK_Rotatable_Bonds:                   6
##########                         Heavy_Atoms:                  24
##########                    Molecular_Weight:              374.82
##########                DOCK_Rotatable_Bonds:                   6
##########                       Formal_Charge:          -0.0299999
##########                     HBond_Acceptors:                   9
##########                        HBond_Donors:                   1
##########                         Heavy_Atoms:                  24
##########                          Grid_Score:          -25.508110
##########                     Grid_vdw_energy:          -25.637878
##########                      Grid_es_energy:            0.129768
##########           Internal_energy_repulsive:           36.827694

@<TRIPOS>MOLECULE
ZINC000632456679
 40 41 1 0 0
SMALL
USER_CHARGES


@<TRIPOS>ATOM
      1 C1         -5.4628    4.8170   52.8907 C.3     1  ZINC000632456679   -0.1600
      2 C2         -6.4407    3.6443   52.9879 C.3     1  ZINC000632456679    0.1900
      3 C3         -7.8179    4.0859   52.4888 C.3     1  ZINC000632456679   -0.2000
      4 C4         -5.9339    2.4851   52.1274 C.3     1  ZINC000632456679   -0.6300
      5 S5         -5.1210    3.1429   50.6451 S.o2    1  ZINC000632456679    2.4100
      6 C6         -4.9605    1.6579   49.6157 C.3     1  ZINC000632456679   -0.6600
      7 O7         -6.0116    4.0448   50.0028 O.2     1  ZINC000632456679   -0.9300
      8 O8         -3.8200    3.5888   51.0024 O.2     1  ZINC000632456679   -0.9300
      9 N9         -6.5434    3.2085   54.3828 N.am    1  ZINC000632456679   -0.7200
     10 C10        -7.3407    2.1717   54.7079 C.2     1  ZINC000632456679    0.6200
     11 O11        -7.9759    1.5990   53.8438 O.2     1  ZINC000632456679   -0.5000
     12 C12        -7.4428    1.7318   56.1124 C.2     1  ZINC000632456679   -0.0900
     13 C13        -8.3322    0.8308   56.6257 C.2     1  ZINC000632456679   -0.1300
     14 C14        -7.9989    0.7747   58.0071 C.2     1  ZINC000632456679    0.0400
     15 C15        -8.6544   -0.0559   59.0477 C.ar    1  ZINC000632456679   -0.0500
     16 C16        -9.3681   -1.1961   58.6851 C.ar    1  ZINC000632456679   -0.0600
     17 C17        -9.9762   -1.9656   59.6563 C.ar    1  ZINC000632456679   -0.1100
     18 C18        -9.8794   -1.6077   60.9889 C.ar    1  ZINC000632456679   -0.0700
     19 C19        -9.1725   -0.4768   61.3576 C.ar    1  ZINC000632456679   -0.0800
     20 Cl20       -9.0560   -0.0347   63.0323 Cl      1  ZINC000632456679   -0.0400
     21 C21        -8.5535    0.2989   60.3933 C.ar    1  ZINC000632456679    0.1400
     22 F22        -7.8629    1.4031   60.7527 F       1  ZINC000632456679   -0.1100
     23 N23        -6.9979    1.6015   58.1777 N.2     1  ZINC000632456679   -0.3200
     24 O24        -6.6740    2.1340   57.1421 O.3     1  ZINC000632456679    0.1400
     25 H25        -5.8238    5.6429   53.5036 H       1  ZINC000632456679    0.0900
     26 H26        -4.4817    4.5024   53.2462 H       1  ZINC000632456679    0.0600
     27 H27        -5.3863    5.1412   51.8528 H       1  ZINC000632456679    0.0700
     28 H28        -7.7414    4.4101   51.4509 H       1  ZINC000632456679    0.0800
     29 H29        -8.5145    3.2504   52.5579 H       1  ZINC000632456679    0.0800
     30 H30        -8.1789    4.9117   53.1018 H       1  ZINC000632456679    0.0900
     31 H31        -5.2208    1.8922   52.7000 H       1  ZINC000632456679    0.1600
     32 H32        -6.7744    1.8570   51.8323 H       1  ZINC000632456679    0.1400
     33 H33        -5.9498    1.2468   49.4141 H       1  ZINC000632456679    0.1300
     34 H34        -4.4768    1.9189   48.6743 H       1  ZINC000632456679    0.1300
     35 H35        -4.3585    0.9157   50.1398 H       1  ZINC000632456679    0.1300
     36 H36        -6.0376    3.6663   55.0724 H       1  ZINC000632456679    0.4200
     37 H37        -9.1074    0.2886   56.1046 H       1  ZINC000632456679    0.1900
     38 H38        -9.4458   -1.4774   57.6453 H       1  ZINC000632456679    0.1500
     39 H39       -10.5293   -2.8495   59.3749 H       1  ZINC000632456679    0.1500
     40 H40       -10.3579   -2.2132   61.7445 H       1  ZINC000632456679    0.1500
@<TRIPOS>BOND
     1     1     2    1
     2     1    25    1
     3     1    26    1
     4     1    27    1
     5     2     3    1
     6     2     4    1
     7     2     9    1
     8     3    28    1
     9     3    29    1
    10     3    30    1
    11     4     5    1
    12     4    31    1
    13     4    32    1
    14     5     6    1
    15     5     7    2
    16     5     8    2
    17     6    33    1
    18     6    34    1
    19     6    35    1
    20     9    10   am
    21     9    36    1
    22    10    11    2
    23    10    12    1
    24    12    24    1
    25    12    13    2
    26    13    14    1
    27    13    37    1
    28    14    15    1
    29    14    23    2
    30    15    21   ar
    31    15    16   ar
    32    16    17   ar
    33    16    38    1
    34    17    18   ar
    35    17    39    1
    36    18    19   ar
    37    18    40    1
    38    19    20    1
    39    19    21   ar
    40    21    22    1
    41    23    24    1
@<TRIPOS>SUBSTRUCTURE
     1 ZINC000632456679        1 TEMP              0 ****  ****    0 ROOT


##########                                Name:    ZINC000616491533
##########                DOCK_Rotatable_Bonds:                   4
##########                         Heavy_Atoms:                  27
##########                    Molecular_Weight:             375.418
##########                DOCK_Rotatable_Bonds:                   4
##########                       Formal_Charge:           0.0299996
##########                     HBond_Acceptors:                   7
##########                        HBond_Donors:                   0
##########                         Heavy_Atoms:                  27
##########                          Grid_Score:          -25.420559
##########                     Grid_vdw_energy:          -25.196918
##########                      Grid_es_energy:           -0.223641
##########           Internal_energy_repulsive:           12.048635

@<TRIPOS>MOLECULE
ZINC000616491533
 50 53 1 0 0
SMALL
USER_CHARGES


@<TRIPOS>ATOM
      1 C1        -11.9192   -3.2062   57.2219 C.3     1  ZINC000616491533   -0.1700
      2 C2        -12.2681   -1.8300   57.7920 C.3     1  ZINC000616491533    0.1400
      3 H3        -13.3381   -1.6477   57.6917 H       1  ZINC000616491533    0.0800
      4 C4        -11.8606   -1.7594   59.2804 C.3     1  ZINC000616491533   -0.1200
      5 C5        -10.4948   -1.0435   59.2292 C.3     1  ZINC000616491533   -0.0700
      6 C6        -10.6753   -0.0608   58.0564 C.3     1  ZINC000616491533    0.0900
      7 N7        -11.5141   -0.7876   57.0791 N.am    1  ZINC000616491533   -0.6100
      8 C8        -11.5738   -0.5371   55.7562 C.2     1  ZINC000616491533    0.6100
      9 O9        -12.3000   -1.2032   55.0434 O.2     1  ZINC000616491533   -0.5200
     10 C10       -10.7590    0.5442   55.1731 C.2     1  ZINC000616491533   -0.2400
     11 C11        -9.8837    0.4294   54.1117 C.2     1  ZINC000616491533    0.0700
     12 C12        -9.5839   -0.8260   53.3339 C.3     1  ZINC000616491533    0.3400
     13 F13       -10.5536   -1.0023   52.3410 F       1  ZINC000616491533   -0.1900
     14 F14        -8.3223   -0.7160   52.7394 F       1  ZINC000616491533   -0.1600
     15 N15        -9.3481    1.6453   53.8993 N.pl3   1  ZINC000616491533   -0.2900
     16 C16        -8.4082    1.9650   52.9100 C.ar    1  ZINC000616491533    0.1300
     17 C17        -8.8311    2.2973   51.6299 C.ar    1  ZINC000616491533   -0.1000
     18 C18        -7.9025    2.6120   50.6572 C.ar    1  ZINC000616491533   -0.1000
     19 C19        -6.5526    2.5957   50.9570 C.ar    1  ZINC000616491533   -0.1000
     20 C20        -6.1283    2.2650   52.2308 C.ar    1  ZINC000616491533   -0.1000
     21 C21        -7.0524    1.9555   53.2095 C.ar    1  ZINC000616491533   -0.0900
     22 N22        -9.8881    2.5366   54.8331 N.2     1  ZINC000616491533   -0.2600
     23 C23       -10.7324    1.8936   55.5923 C.2     1  ZINC000616491533    0.0700
     24 C24       -10.2333   -0.2921   60.5265 C.3     1  ZINC000616491533   -0.1400
     25 C25        -8.8516    0.3677   60.4586 C.3     1  ZINC000616491533    0.0600
     26 O26        -7.8649   -0.6301   60.1876 O.3     1  ZINC000616491533   -0.3800
     27 C27        -8.0348   -1.2998   58.9366 C.3     1  ZINC000616491533    0.0600
     28 C28        -9.3793   -2.0357   58.9345 C.3     1  ZINC000616491533   -0.1500
     29 H29       -10.8467   -3.3765   57.3142 H       1  ZINC000616491533    0.0600
     30 H30       -12.4582   -3.9757   57.7746 H       1  ZINC000616491533    0.0600
     31 H31       -12.2045   -3.2469   56.1707 H       1  ZINC000616491533    0.0800
     32 H32       -12.5820   -1.1741   59.8507 H       1  ZINC000616491533    0.0800
     33 H33       -11.7562   -2.7601   59.6999 H       1  ZINC000616491533    0.0900
     34 H34       -11.1835    0.8428   58.3930 H       1  ZINC000616491533    0.0800
     35 H35        -9.7090    0.1874   57.6171 H       1  ZINC000616491533    0.0800
     36 H36        -9.5944   -1.6823   54.0082 H       1  ZINC000616491533    0.1400
     37 H37        -9.8852    2.3096   51.3951 H       1  ZINC000616491533    0.1300
     38 H38        -8.2308    2.8706   49.6614 H       1  ZINC000616491533    0.1400
     39 H39        -5.8283    2.8413   50.1944 H       1  ZINC000616491533    0.1300
     40 H40        -5.0734    2.2531   52.4619 H       1  ZINC000616491533    0.1400
     41 H41        -6.7204    1.6973   54.2043 H       1  ZINC000616491533    0.1300
     42 H42       -11.3059    2.3173   56.4033 H       1  ZINC000616491533    0.2100
     43 H43       -10.9963    0.4742   60.6635 H       1  ZINC000616491533    0.0800
     44 H44       -10.2629   -0.9898   61.3635 H       1  ZINC000616491533    0.0800
     45 H45        -8.8430    1.1134   59.6636 H       1  ZINC000616491533    0.0500
     46 H46        -8.6307    0.8486   61.4116 H       1  ZINC000616491533    0.1000
     47 H47        -8.0186   -0.5694   58.1277 H       1  ZINC000616491533    0.0500
     48 H48        -7.2268   -2.0177   58.7955 H       1  ZINC000616491533    0.1000
     49 H49        -9.3707   -2.8116   59.7001 H       1  ZINC000616491533    0.0800
     50 H50        -9.5444   -2.4895   57.9574 H       1  ZINC000616491533    0.0800
@<TRIPOS>BOND
     1     1     2    1
     2     1    29    1
     3     1    30    1
     4     1    31    1
     5     2     3    1
     6     2     7    1
     7     2     4    1
     8     4     5    1
     9     4    32    1
    10     4    33    1
    11     5    28    1
    12     5     6    1
    13     5    24    1
    14     6     7    1
    15     6    34    1
    16     6    35    1
    17     7     8   am
    18     8     9    2
    19     8    10    1
    20    10    23    1
    21    10    11    2
    22    11    12    1
    23    11    15    1
    24    12    13    1
    25    12    14    1
    26    12    36    1
    27    15    16    1
    28    15    22    1
    29    16    21   ar
    30    16    17   ar
    31    17    18   ar
    32    17    37    1
    33    18    19   ar
    34    18    38    1
    35    19    20   ar
    36    19    39    1
    37    20    21   ar
    38    20    40    1
    39    21    41    1
    40    22    23    2
    41    23    42    1
    42    24    25    1
    43    24    43    1
    44    24    44    1
    45    25    26    1
    46    25    45    1
    47    25    46    1
    48    26    27    1
    49    27    28    1
    50    27    47    1
    51    27    48    1
    52    28    49    1
    53    28    50    1
@<TRIPOS>SUBSTRUCTURE
     1 ZINC000616491533        1 TEMP              0 ****  ****    0 ROOT


##########                                Name:    ZINC000176150038
##########                DOCK_Rotatable_Bonds:                   4
##########                         Heavy_Atoms:                  23
##########                    Molecular_Weight:             333.712
##########                DOCK_Rotatable_Bonds:                   4
##########                       Formal_Charge:        -2.23517e-07
##########                     HBond_Acceptors:                  10
##########                        HBond_Donors:                   1
##########                         Heavy_Atoms:                  23
##########                          Grid_Score:          -25.107357
##########                     Grid_vdw_energy:          -24.665401
##########                      Grid_es_energy:           -0.441956
##########           Internal_energy_repulsive:            6.874568

@<TRIPOS>MOLECULE
ZINC000176150038
 32 34 1 0 0
SMALL
USER_CHARGES


@<TRIPOS>ATOM
      1 C1         -8.8592   -0.2145   62.3901 C.3     1  ZINC000176150038   -0.0900
      2 C2         -8.4685    0.6189   61.1968 C.2     1  ZINC000176150038    0.2600
      3 N3         -7.9151    1.8031   61.2262 N.2     1  ZINC000176150038   -0.3300
      4 N4         -7.7104    2.2369   60.0349 N.2     1  ZINC000176150038   -0.0300
      5 N5         -8.1142    1.3700   59.1699 N.2     1  ZINC000176150038   -0.0700
      6 N6         -8.6196    0.2789   59.8986 N.pl3   1  ZINC000176150038   -0.3300
      7 C7         -9.1704   -0.9057   59.3867 C.ar    1  ZINC000176150038    0.1400
      8 C8         -8.5033   -2.1112   59.5559 C.ar    1  ZINC000176150038   -0.1000
      9 C9         -9.0444   -3.2793   59.0527 C.ar    1  ZINC000176150038   -0.1100
     10 C10       -10.2519   -3.2509   58.3794 C.ar    1  ZINC000176150038    0.1000
     11 F11       -10.7788   -4.3942   57.8890 F       1  ZINC000176150038   -0.1200
     12 C12       -10.9246   -2.0451   58.2072 C.ar    1  ZINC000176150038    0.1300
     13 N13       -12.1466   -2.0155   57.5259 N.am    1  ZINC000176150038   -0.6500
     14 C14       -13.3022   -1.9599   58.2171 C.2     1  ZINC000176150038    0.5700
     15 O15       -13.2831   -1.9353   59.4318 O.2     1  ZINC000176150038   -0.4800
     16 C16       -14.5975   -1.9286   57.4950 C.ar    1  ZINC000176150038    0.1400
     17 N17       -14.7329   -1.2167   56.3783 N.ar    1  ZINC000176150038   -0.4800
     18 C18       -15.8798   -1.1867   55.7348 C.ar    1  ZINC000176150038    0.3000
     19 N19       -16.9365   -1.8519   56.1598 N.ar    1  ZINC000176150038   -0.4800
     20 C20       -16.8854   -2.5825   57.2600 C.ar    1  ZINC000176150038    0.1700
     21 C21       -15.6943   -2.6502   57.9720 C.ar    1  ZINC000176150038   -0.1000
     22 Cl22      -15.5760   -3.5964   59.4228 Cl      1  ZINC000176150038    0.0100
     23 C23       -10.3848   -0.8733   58.7163 C.ar    1  ZINC000176150038   -0.0800
     24 H24        -8.0204   -0.8466   62.6821 H       1  ZINC000176150038    0.1100
     25 H25        -9.1262    0.4407   63.2192 H       1  ZINC000176150038    0.1100
     26 H26        -9.7133   -0.8406   62.1320 H       1  ZINC000176150038    0.0900
     27 H27        -7.5598   -2.1364   60.0809 H       1  ZINC000176150038    0.1500
     28 H28        -8.5231   -4.2159   59.1854 H       1  ZINC000176150038    0.1600
     29 H29       -12.1618   -2.0350   56.5562 H       1  ZINC000176150038    0.4300
     30 H30       -15.9586   -0.5997   54.8317 H       1  ZINC000176150038    0.2200
     31 H31       -17.7568   -3.1231   57.5988 H       1  ZINC000176150038    0.1900
     32 H32       -10.9048    0.0640   58.5842 H       1  ZINC000176150038    0.1700
@<TRIPOS>BOND
     1     1     2    1
     2     1    24    1
     3     1    25    1
     4     1    26    1
     5     2     6    1
     6     2     3    2
     7     3     4    1
     8     4     5    2
     9     5     6    1
    10     6     7    1
    11     7    23   ar
    12     7     8   ar
    13     8     9   ar
    14     8    27    1
    15     9    10   ar
    16     9    28    1
    17    10    11    1
    18    10    12   ar
    19    12    13    1
    20    12    23   ar
    21    13    14   am
    22    13    29    1
    23    14    15    2
    24    14    16    1
    25    16    21   ar
    26    16    17   ar
    27    17    18   ar
    28    18    19   ar
    29    18    30    1
    30    19    20   ar
    31    20    21   ar
    32    20    31    1
    33    21    22    1
    34    23    32    1
@<TRIPOS>SUBSTRUCTURE
     1 ZINC000176150038        1 TEMP              0 ****  ****    0 ROOT


##########                                Name:    ZINC000942661662
##########                DOCK_Rotatable_Bonds:                   6
##########                         Heavy_Atoms:                  25
##########                    Molecular_Weight:             343.426
##########                DOCK_Rotatable_Bonds:                   6
##########                       Formal_Charge:           0.0399997
##########                     HBond_Acceptors:                   6
##########                        HBond_Donors:                   1
##########                         Heavy_Atoms:                  25
##########                          Grid_Score:          -25.054890
##########                     Grid_vdw_energy:          -23.376156
##########                      Grid_es_energy:           -1.678734
##########           Internal_energy_repulsive:           32.208168

@<TRIPOS>MOLECULE
ZINC000942661662
 50 52 1 0 0
SMALL
USER_CHARGES


@<TRIPOS>ATOM
      1 C1         -9.2911    0.9068   62.7240 C.3     1  ZINC000942661662   -0.1700
      2 C2         -8.3920    0.6254   61.5185 C.3     1  ZINC000942661662    0.1000
      3 N3         -9.1790    0.7305   60.2873 N.am    1  ZINC000942661662   -0.6000
      4 C4         -8.9396    1.7321   59.4179 C.2     1  ZINC000942661662    0.6000
      5 O5         -9.5929    1.8193   58.3958 O.2     1  ZINC000942661662   -0.5200
      6 C6         -7.8862    2.7218   59.7059 C.2     1  ZINC000942661662   -0.2400
      7 C7         -6.8275    3.0538   58.9123 C.2     1  ZINC000942661662    0.0700
      8 C8         -6.5202    2.4638   57.5600 C.3     1  ZINC000942661662   -0.0900
      9 O9         -6.1091    3.9912   59.5378 O.3     1  ZINC000942661662   -0.1700
     10 C10        -6.6528    4.2981   60.7259 C.2     1  ZINC000942661662   -0.0300
     11 C11        -7.7602    3.5620   60.9057 C.2     1  ZINC000942661662   -0.1900
     12 C12       -10.2262   -0.2534   60.0011 C.3     1  ZINC000942661662    0.1400
     13 H13       -11.1967    0.0994   60.3499 H       1  ZINC000942661662    0.1100
     14 C14        -9.8791   -1.6318   60.6229 C.3     1  ZINC000942661662   -0.1400
     15 C15       -10.6313   -2.6224   59.7093 C.3     1  ZINC000942661662    0.1000
     16 N16       -10.8617   -1.9435   58.4257 N.am    1  ZINC000942661662   -0.6200
     17 C17       -11.5088   -2.4667   57.3654 C.2     1  ZINC000942661662    0.6100
     18 O18       -11.9612   -3.5948   57.4249 O.2     1  ZINC000942661662   -0.5200
     19 C19       -11.6675   -1.6764   56.1400 C.2     1  ZINC000942661662   -0.0600
     20 C20       -12.7430   -0.8752   55.8207 C.2     1  ZINC000942661662   -0.0700
     21 C21       -13.9719   -0.6482   56.6628 C.3     1  ZINC000942661662   -0.0900
     22 C22       -12.4784   -0.3124   54.5681 C.2     1  ZINC000942661662   -0.2100
     23 C23       -11.2727   -0.7696   54.1535 C.2     1  ZINC000942661662    0.0500
     24 C24       -10.6002   -0.4131   52.8528 C.3     1  ZINC000942661662   -0.0900
     25 N25       -10.7669   -1.5950   55.1021 N.pl3   1  ZINC000942661662   -0.5400
     26 C26       -10.2695   -0.5945   58.4907 C.3     1  ZINC000942661662    0.0900
     27 H27        -8.7056    0.8287   63.6401 H       1  ZINC000942661662    0.0700
     28 H28        -9.7048    1.9119   62.6419 H       1  ZINC000942661662    0.0600
     29 H29       -10.1034    0.1804   62.7489 H       1  ZINC000942661662    0.0600
     30 H30        -7.5797    1.3517   61.4936 H       1  ZINC000942661662    0.0900
     31 H31        -7.9783   -0.3797   61.6005 H       1  ZINC000942661662    0.0800
     32 H32        -7.0116    3.0538   56.7862 H       1  ZINC000942661662    0.0900
     33 H33        -5.4428    2.4740   57.3955 H       1  ZINC000942661662    0.0900
     34 H34        -6.8843    1.4372   57.5203 H       1  ZINC000942661662    0.1000
     35 H35        -6.2640    5.0250   61.4235 H       1  ZINC000942661662    0.2100
     36 H36        -8.4198    3.5778   61.7608 H       1  ZINC000942661662    0.1600
     37 H37        -8.8048   -1.8123   60.5855 H       1  ZINC000942661662    0.1000
     38 H38       -10.2467   -1.6965   61.6470 H       1  ZINC000942661662    0.0900
     39 H39       -10.0260   -3.5153   59.5529 H       1  ZINC000942661662    0.0700
     40 H40       -11.5851   -2.8931   60.1619 H       1  ZINC000942661662    0.0700
     41 H41       -13.8086    0.2050   57.3213 H       1  ZINC000942661662    0.0700
     42 H42       -14.8250   -0.4486   56.0144 H       1  ZINC000942661662    0.0600
     43 H43       -14.1709   -1.5367   57.2620 H       1  ZINC000942661662    0.0800
     44 H44       -13.1215    0.3661   54.0272 H       1  ZINC000942661662    0.1400
     45 H45        -9.9789    0.4711   52.9954 H       1  ZINC000942661662    0.0800
     46 H46        -9.9776   -1.2458   52.5256 H       1  ZINC000942661662    0.0700
     47 H47       -11.3577   -0.2068   52.0967 H       1  ZINC000942661662    0.0900
     48 H48        -9.9149   -2.0562   55.0549 H       1  ZINC000942661662    0.4100
     49 H49       -10.8953    0.1207   57.9568 H       1  ZINC000942661662    0.0800
     50 H50        -9.2619   -0.6022   58.0751 H       1  ZINC000942661662    0.1000
@<TRIPOS>BOND
     1     1     2    1
     2     1    27    1
     3     1    28    1
     4     1    29    1
     5     2     3    1
     6     2    30    1
     7     2    31    1
     8     3     4   am
     9     3    12    1
    10     4     5    2
    11     4     6    1
    12     6    11    1
    13     6     7    2
    14     7     8    1
    15     7     9    1
    16     8    32    1
    17     8    33    1
    18     8    34    1
    19     9    10    1
    20    10    11    2
    21    10    35    1
    22    11    36    1
    23    12    13    1
    24    12    26    1
    25    12    14    1
    26    14    15    1
    27    14    37    1
    28    14    38    1
    29    15    16    1
    30    15    39    1
    31    15    40    1
    32    16    17   am
    33    16    26    1
    34    17    18    2
    35    17    19    1
    36    19    25    1
    37    19    20    2
    38    20    21    1
    39    20    22    1
    40    21    41    1
    41    21    42    1
    42    21    43    1
    43    22    23    2
    44    22    44    1
    45    23    24    1
    46    23    25    1
    47    24    45    1
    48    24    46    1
    49    24    47    1
    50    25    48    1
    51    26    49    1
    52    26    50    1
@<TRIPOS>SUBSTRUCTURE
     1 ZINC000942661662        1 TEMP              0 ****  ****    0 ROOT


##########                                Name:    ZINC000277311370
##########                DOCK_Rotatable_Bonds:                   5
##########                         Heavy_Atoms:                  17
##########                    Molecular_Weight:             361.036
##########                DOCK_Rotatable_Bonds:                   5
##########                       Formal_Charge:        -7.45058e-08
##########                     HBond_Acceptors:                   4
##########                        HBond_Donors:                   1
##########                         Heavy_Atoms:                  17
##########                          Grid_Score:          -24.910088
##########                     Grid_vdw_energy:          -25.320559
##########                      Grid_es_energy:            0.410471
##########           Internal_energy_repulsive:           11.363868

@<TRIPOS>MOLECULE
ZINC000277311370
 28 28 1 0 0
SMALL
USER_CHARGES


@<TRIPOS>ATOM
      1 C1         -8.0107    3.6694   53.0784 C.3     1  ZINC000277311370   -0.1500
      2 C2         -7.4492    2.2465   53.1097 C.3     1  ZINC000277311370   -0.1000
      3 C3         -8.4006    1.3399   53.8931 C.3     1  ZINC000277311370   -0.1600
      4 C4         -7.3076    1.7226   51.6792 C.3     1  ZINC000277311370    0.2500
      5 H5         -7.7137    2.4554   50.9820 H       1  ZINC000277311370    0.1400
      6 C6         -8.0457    0.4561   51.5451 C.1     1  ZINC000277311370    0.1900
      7 N7         -8.6153   -0.5213   51.4417 N.1     1  ZINC000277311370   -0.4100
      8 N8         -5.8913    1.4965   51.3800 N.am    1  ZINC000277311370   -0.7000
      9 C9         -5.2516    2.2964   50.5039 C.2     1  ZINC000277311370    0.5700
     10 O10        -5.8492    3.2061   49.9633 O.2     1  ZINC000277311370   -0.4900
     11 C11        -3.8205    2.0667   50.2000 C.ar    1  ZINC000277311370    0.1100
     12 N12        -3.4688    1.0608   49.4082 N.ar    1  ZINC000277311370   -0.4300
     13 C13        -2.2088    0.8229   49.1129 C.ar    1  ZINC000277311370    0.1300
     14 Br14       -1.7746   -0.6265   47.9787 Br      1  ZINC000277311370    0.0200
     15 C15        -1.1947    1.6208   49.6221 C.ar    1  ZINC000277311370   -0.1100
     16 C16        -1.5172    2.6816   50.4526 C.ar    1  ZINC000277311370   -0.0400
     17 C17        -2.8542    2.9120   50.7430 C.ar    1  ZINC000277311370   -0.0900
     18 Br18       -3.3576    4.3443   51.8704 Br      1  ZINC000277311370    0.0300
     19 H19        -8.1117    4.0427   54.0975 H       1  ZINC000277311370    0.0700
     20 H20        -7.3329    4.3153   52.5203 H       1  ZINC000277311370    0.0700
     21 H21        -8.9877    3.6639   52.5950 H       1  ZINC000277311370    0.0600
     22 H22        -6.4722    2.2520   53.5931 H       1  ZINC000277311370    0.1000
     23 H23        -9.3776    1.3344   53.4097 H       1  ZINC000277311370    0.0600
     24 H24        -8.0006    0.3262   53.9153 H       1  ZINC000277311370    0.0600
     25 H25        -8.5016    1.7132   54.9122 H       1  ZINC000277311370    0.0700
     26 H26        -5.4140    0.7712   51.8124 H       1  ZINC000277311370    0.4200
     27 H27        -0.1637    1.4169   49.3736 H       1  ZINC000277311370    0.1600
     28 H28        -0.7457    3.3172   50.8614 H       1  ZINC000277311370    0.1700
@<TRIPOS>BOND
     1     1     2    1
     2     1    19    1
     3     1    20    1
     4     1    21    1
     5     2     3    1
     6     2     4    1
     7     2    22    1
     8     3    23    1
     9     3    24    1
    10     3    25    1
    11     4     5    1
    12     4     6    1
    13     4     8    1
    14     6     7    3
    15     8     9   am
    16     8    26    1
    17     9    10    2
    18     9    11    1
    19    11    17   ar
    20    11    12   ar
    21    12    13   ar
    22    13    14    1
    23    13    15   ar
    24    15    16   ar
    25    15    27    1
    26    16    17   ar
    27    16    28    1
    28    17    18    1
@<TRIPOS>SUBSTRUCTURE
     1 ZINC000277311370        1 TEMP              0 ****  ****    0 ROOT


##########                                Name:    ZINC001318556452
##########                DOCK_Rotatable_Bonds:                   4
##########                         Heavy_Atoms:                  26
##########                    Molecular_Weight:             368.456
##########                DOCK_Rotatable_Bonds:                   4
##########                       Formal_Charge:          -0.0200005
##########                     HBond_Acceptors:                   6
##########                        HBond_Donors:                   1
##########                         Heavy_Atoms:                  26
##########                          Grid_Score:          -24.632071
##########                     Grid_vdw_energy:          -24.431364
##########                      Grid_es_energy:           -0.200706
##########           Internal_energy_repulsive:           17.250366

@<TRIPOS>MOLECULE
ZINC001318556452
 46 48 1 0 0
SMALL
USER_CHARGES


@<TRIPOS>ATOM
      1 C1         -7.9068    0.4933   53.0054 C.3     1  ZINC001318556452   -0.1300
      2 C2         -8.4350    1.5215   52.0385 C.ar    1  ZINC001318556452   -0.1000
      3 C3         -7.6525    1.9430   50.9818 C.ar    1  ZINC001318556452   -0.0500
      4 C4         -6.2693    1.3743   50.7959 C.3     1  ZINC001318556452   -0.4100
      5 S5         -5.2953    2.4852   49.7433 S.o     1  ZINC001318556452    1.2500
      6 C6         -3.6910    1.6451   49.6379 C.3     1  ZINC001318556452   -0.4900
      7 O7         -5.1328    3.7361   50.3976 O.2     1  ZINC001318556452   -0.8400
      8 C8         -8.1368    2.8860   50.0935 C.ar    1  ZINC001318556452   -0.1200
      9 C9         -9.4051    3.4105   50.2608 C.ar    1  ZINC001318556452   -0.1000
     10 C10       -10.1928    2.9941   51.3162 C.ar    1  ZINC001318556452   -0.1200
     11 C11        -9.7120    2.0424   52.2063 C.ar    1  ZINC001318556452    0.1400
     12 N12       -10.5067    1.6184   53.2753 N.am    1  ZINC001318556452   -0.6600
     13 C13       -11.5270    0.7646   53.0594 C.2     1  ZINC001318556452    0.5600
     14 O14       -11.7560    0.3634   51.9356 O.2     1  ZINC001318556452   -0.5000
     15 C15       -12.3698    0.3149   54.1932 C.2     1  ZINC001318556452   -0.0300
     16 C16       -13.4877    1.0128   54.5519 C.2     1  ZINC001318556452   -0.1600
     17 C17       -14.2982    0.5441   55.6734 C.2     1  ZINC001318556452    0.5300
     18 O18       -15.2954    1.1661   55.9939 O.2     1  ZINC001318556452   -0.5200
     19 N19       -13.9605   -0.5633   56.3565 N.am    1  ZINC001318556452   -0.5200
     20 C20       -14.8002   -1.0010   57.4744 C.3     1  ZINC001318556452    0.0600
     21 C21       -12.8404   -1.2957   56.0262 C.ar    1  ZINC001318556452    0.1800
     22 C22       -12.5081   -2.4400   56.7466 C.ar    1  ZINC001318556452   -0.1700
     23 C23       -11.3856   -3.1627   56.4057 C.ar    1  ZINC001318556452   -0.0600
     24 C24       -10.5802   -2.7614   55.3489 C.ar    1  ZINC001318556452   -0.1500
     25 C25       -10.8872   -1.6419   54.6285 C.ar    1  ZINC001318556452   -0.0600
     26 C26       -12.0242   -0.8964   54.9528 C.ar    1  ZINC001318556452   -0.1100
     27 H27        -8.1626   -0.5048   52.6499 H       1  ZINC001318556452    0.0800
     28 H28        -6.8232    0.5862   53.0785 H       1  ZINC001318556452    0.0800
     29 H29        -8.3523    0.6548   53.9869 H       1  ZINC001318556452    0.0700
     30 H30        -5.7837    1.2752   51.7668 H       1  ZINC001318556452    0.1000
     31 H31        -6.3396    0.3948   50.3231 H       1  ZINC001318556452    0.1300
     32 H32        -3.8259    0.6587   49.1941 H       1  ZINC001318556452    0.1100
     33 H33        -3.0132    2.2326   49.0186 H       1  ZINC001318556452    0.1100
     34 H34        -3.2700    1.5391   50.6377 H       1  ZINC001318556452    0.0800
     35 H35        -7.5229    3.2136   49.2676 H       1  ZINC001318556452    0.1200
     36 H36        -9.7802    4.1470   49.5655 H       1  ZINC001318556452    0.1300
     37 H37       -11.1832    3.4045   51.4464 H       1  ZINC001318556452    0.1500
     38 H38       -10.3238    1.9386   54.1725 H       1  ZINC001318556452    0.4100
     39 H39       -13.7699    1.9040   54.0112 H       1  ZINC001318556452    0.1600
     40 H40       -15.6355   -0.3110   57.5933 H       1  ZINC001318556452    0.1000
     41 H41       -15.1816   -2.0018   57.2722 H       1  ZINC001318556452    0.0800
     42 H42       -14.2081   -1.0158   58.3895 H       1  ZINC001318556452    0.0800
     43 H43       -13.1285   -2.7602   57.5707 H       1  ZINC001318556452    0.1400
     44 H44       -11.1299   -4.0497   56.9663 H       1  ZINC001318556452    0.1300
     45 H45        -9.7034   -3.3385   55.0945 H       1  ZINC001318556452    0.1300
     46 H46       -10.2554   -1.3362   53.8076 H       1  ZINC001318556452    0.1700
@<TRIPOS>BOND
     1     1     2    1
     2     1    27    1
     3     1    28    1
     4     1    29    1
     5     2    11   ar
     6     2     3   ar
     7     3     4    1
     8     3     8   ar
     9     4     5    1
    10     4    30    1
    11     4    31    1
    12     5     6    1
    13     5     7    2
    14     6    32    1
    15     6    33    1
    16     6    34    1
    17     8     9   ar
    18     8    35    1
    19     9    10   ar
    20     9    36    1
    21    10    11   ar
    22    10    37    1
    23    11    12    1
    24    12    13   am
    25    12    38    1
    26    13    14    2
    27    13    15    1
    28    15    26    1
    29    15    16    2
    30    16    17    1
    31    16    39    1
    32    17    18    2
    33    17    19   am
    34    19    20    1
    35    19    21    1
    36    20    40    1
    37    20    41    1
    38    20    42    1
    39    21    26   ar
    40    21    22   ar
    41    22    23   ar
    42    22    43    1
    43    23    24   ar
    44    23    44    1
    45    24    25   ar
    46    24    45    1
    47    25    26   ar
    48    25    46    1
@<TRIPOS>SUBSTRUCTURE
     1 ZINC001318556452        1 TEMP              0 ****  ****    0 ROOT


##########                                Name:    ZINC000541315701
##########                DOCK_Rotatable_Bonds:                   4
##########                         Heavy_Atoms:                  25
##########                    Molecular_Weight:             422.709
##########                DOCK_Rotatable_Bonds:                   4
##########                       Formal_Charge:           0.0300003
##########                     HBond_Acceptors:                   6
##########                        HBond_Donors:                   0
##########                         Heavy_Atoms:                  25
##########                          Grid_Score:          -24.429316
##########                     Grid_vdw_energy:          -23.958418
##########                      Grid_es_energy:           -0.470898
##########           Internal_energy_repulsive:           20.137890

@<TRIPOS>MOLECULE
ZINC000541315701
 42 44 1 0 0
SMALL
USER_CHARGES


@<TRIPOS>ATOM
      1 C1        -10.9967    1.3262   55.1132 C.3     1  ZINC000541315701    0.0800
      2 N2         -9.6580    0.9947   55.6073 N.am    1  ZINC000541315701   -0.5700
      3 C3         -9.5149    0.1770   56.6690 C.2     1  ZINC000541315701    0.5400
      4 O4         -8.4067   -0.0974   57.0781 O.2     1  ZINC000541315701   -0.5000
      5 C5        -10.7320   -0.3963   57.3479 C.3     1  ZINC000541315701   -0.1100
      6 H6        -11.5224    0.3505   57.4229 H       1  ZINC000541315701    0.1300
      7 C7        -11.2328   -1.6601   56.6111 C.3     1  ZINC000541315701   -0.1500
      8 C8        -10.5543   -2.8036   57.3328 C.2     1  ZINC000541315701    0.5200
      9 O9        -10.4544   -3.9337   56.9041 O.2     1  ZINC000541315701   -0.5200
     10 N10       -10.0780   -2.3847   58.5178 N.am    1  ZINC000541315701   -0.6100
     11 C11        -9.3567   -3.2367   59.4666 C.3     1  ZINC000541315701    0.0900
     12 C12       -10.3733   -0.9633   58.7395 C.3     1  ZINC000541315701    0.1900
     13 H13        -9.4969   -0.4540   59.1402 H       1  ZINC000541315701    0.1100
     14 C14       -11.5390   -0.8137   59.6826 C.ar    1  ZINC000541315701   -0.0900
     15 C15       -12.6425   -1.6359   59.5530 C.ar    1  ZINC000541315701   -0.1000
     16 C16       -13.7123   -1.4997   60.4183 C.ar    1  ZINC000541315701   -0.1000
     17 C17       -13.6791   -0.5409   61.4129 C.ar    1  ZINC000541315701   -0.1000
     18 C18       -12.5746    0.2825   61.5432 C.ar    1  ZINC000541315701   -0.0300
     19 Cl19      -12.5318    1.4867   62.7929 Cl      1  ZINC000541315701   -0.0600
     20 C20       -11.5022    0.1419   60.6808 C.ar    1  ZINC000541315701   -0.0900
     21 C21        -8.5318    1.5253   54.9791 C.ar    1  ZINC000541315701    0.3800
     22 N22        -7.8598    2.5073   55.5579 N.ar    1  ZINC000541315701   -0.4700
     23 C23        -6.7890    3.0374   54.9981 C.ar    1  ZINC000541315701    0.1300
     24 C24        -6.3284    2.5823   53.7787 C.ar    1  ZINC000541315701   -0.1600
     25 C25        -7.0046    1.5531   53.1375 C.ar    1  ZINC000541315701   -0.0400
     26 C26        -8.1215    1.0136   53.7522 C.ar    1  ZINC000541315701   -0.1300
     27 Br27       -9.0843   -0.3904   52.9289 Br      1  ZINC000541315701   -0.0200
     28 H28       -11.6914    1.3760   55.9516 H       1  ZINC000541315701    0.0900
     29 H29       -10.9685    2.2912   54.6069 H       1  ZINC000541315701    0.0800
     30 H30       -11.3261    0.5583   54.4133 H       1  ZINC000541315701    0.0700
     31 H31       -12.3163   -1.7459   56.6942 H       1  ZINC000541315701    0.1200
     32 H32       -10.9301   -1.6364   55.5642 H       1  ZINC000541315701    0.1100
     33 H33        -9.2736   -4.2443   59.0596 H       1  ZINC000541315701    0.0900
     34 H34        -8.3597   -2.8295   59.6354 H       1  ZINC000541315701    0.0700
     35 H35        -9.9002   -3.2699   60.4109 H       1  ZINC000541315701    0.0600
     36 H36       -12.6693   -2.3849   58.7753 H       1  ZINC000541315701    0.1300
     37 H37       -14.5743   -2.1424   60.3165 H       1  ZINC000541315701    0.1400
     38 H38       -14.5151   -0.4341   62.0883 H       1  ZINC000541315701    0.1400
     39 H39       -10.6400    0.7842   60.7820 H       1  ZINC000541315701    0.1400
     40 H40        -6.2662    3.8381   55.5002 H       1  ZINC000541315701    0.1700
     41 H41        -5.4511    3.0226   53.3281 H       1  ZINC000541315701    0.1500
     42 H42        -6.6646    1.1792   52.1832 H       1  ZINC000541315701    0.1500
@<TRIPOS>BOND
     1     1     2    1
     2     1    28    1
     3     1    29    1
     4     1    30    1
     5     2     3   am
     6     2    21    1
     7     3     4    2
     8     3     5    1
     9     5     6    1
    10     5    12    1
    11     5     7    1
    12     7     8    1
    13     7    31    1
    14     7    32    1
    15     8     9    2
    16     8    10   am
    17    10    11    1
    18    10    12    1
    19    11    33    1
    20    11    34    1
    21    11    35    1
    22    12    13    1
    23    12    14    1
    24    14    20   ar
    25    14    15   ar
    26    15    16   ar
    27    15    36    1
    28    16    17   ar
    29    16    37    1
    30    17    18   ar
    31    17    38    1
    32    18    19    1
    33    18    20   ar
    34    20    39    1
    35    21    26   ar
    36    21    22   ar
    37    22    23   ar
    38    23    24   ar
    39    23    40    1
    40    24    25   ar
    41    24    41    1
    42    25    26   ar
    43    25    42    1
    44    26    27    1
@<TRIPOS>SUBSTRUCTURE
     1 ZINC000541315701        1 TEMP              0 ****  ****    0 ROOT


##########                                Name:    ZINC000364058410
##########                DOCK_Rotatable_Bonds:                   5
##########                         Heavy_Atoms:                  25
##########                    Molecular_Weight:             358.464
##########                DOCK_Rotatable_Bonds:                   5
##########                       Formal_Charge:           0.0100002
##########                     HBond_Acceptors:                   7
##########                        HBond_Donors:                   0
##########                         Heavy_Atoms:                  25
##########                          Grid_Score:          -24.421223
##########                     Grid_vdw_energy:          -23.578619
##########                      Grid_es_energy:           -0.842603
##########           Internal_energy_repulsive:           64.920860

@<TRIPOS>MOLECULE
ZINC000364058410
 47 50 1 0 0
SMALL
USER_CHARGES


@<TRIPOS>ATOM
      1 C1        -15.9936   -0.4005   53.0468 C.3     1  ZINC000364058410   -0.0700
      2 C2        -15.3289   -0.7510   54.3531 C.2     1  ZINC000364058410   -0.2500
      3 C3        -15.6193   -1.8180   55.1329 C.2     1  ZINC000364058410    0.0800
      4 N4        -14.8058   -1.7746   56.2088 N.pl3   1  ZINC000364058410   -0.3600
      5 C5        -14.7814   -2.7402   57.3103 C.3     1  ZINC000364058410    0.1300
      6 C6        -13.8265   -3.9246   57.0753 C.3     1  ZINC000364058410    0.1100
      7 N7        -12.8010   -3.1008   57.7444 N.am    1  ZINC000364058410   -0.6500
      8 C8        -11.4543   -3.0586   57.7119 C.2     1  ZINC000364058410    0.5600
      9 O9        -10.8405   -3.8284   57.0037 O.2     1  ZINC000364058410   -0.5000
     10 C10       -10.7113   -2.0550   58.5554 C.3     1  ZINC000364058410    0.1400
     11 H11       -11.3713   -1.6719   59.3338 H       1  ZINC000364058410    0.0900
     12 C12        -9.4938   -2.7262   59.1991 C.3     1  ZINC000364058410   -0.1200
     13 C13        -8.6675   -1.6724   59.9399 C.3     1  ZINC000364058410   -0.1200
     14 C14        -8.1699   -0.6205   58.9458 C.3     1  ZINC000364058410   -0.1400
     15 C15        -9.3724    0.0746   58.2994 C.3     1  ZINC000364058410    0.1000
     16 N16       -10.2510   -0.9453   57.7097 N.am    1  ZINC000364058410   -0.6000
     17 C17       -10.6230   -0.8666   56.4167 C.2     1  ZINC000364058410    0.5900
     18 O18       -11.3510   -1.7175   55.9402 O.2     1  ZINC000364058410   -0.4900
     19 C19       -10.1509    0.2438   55.5844 C.2     1  ZINC000364058410   -0.2600
     20 C20        -9.1160    0.1828   54.6941 C.2     1  ZINC000364058410   -0.0600
     21 C21        -8.8860    1.3729   54.0456 C.2     1  ZINC000364058410   -0.1400
     22 C22        -9.7029    2.3749   54.3912 C.2     1  ZINC000364058410   -0.2400
     23 S23       -10.8303    1.8654   55.5661 S.3     1  ZINC000364058410    0.2100
     24 C24       -13.8425   -2.3415   58.4634 C.3     1  ZINC000364058410    0.0900
     25 N25       -13.9886   -0.6435   56.0861 N.2     1  ZINC000364058410   -0.3000
     26 C26       -14.2988   -0.0341   54.9706 C.2     1  ZINC000364058410    0.0500
     27 H27       -15.4586   -0.8794   52.2268 H       1  ZINC000364058410    0.0600
     28 H28       -17.0263   -0.7490   53.0595 H       1  ZINC000364058410    0.0600
     29 H29       -15.9767    0.6808   52.9091 H       1  ZINC000364058410    0.0600
     30 H30       -16.3679   -2.5697   54.9305 H       1  ZINC000364058410    0.1700
     31 H31       -15.7779   -3.0361   57.6381 H       1  ZINC000364058410    0.1300
     32 H32       -14.0974   -4.8238   57.6287 H       1  ZINC000364058410    0.1100
     33 H33       -13.6170   -4.1180   56.0232 H       1  ZINC000364058410    0.0900
     34 H34        -9.8283   -3.4876   59.9036 H       1  ZINC000364058410    0.0800
     35 H35        -8.8824   -3.1897   58.4249 H       1  ZINC000364058410    0.0800
     36 H36        -9.2868   -1.1919   60.6973 H       1  ZINC000364058410    0.0700
     37 H37        -7.8139   -2.1514   60.4194 H       1  ZINC000364058410    0.0800
     38 H38        -7.5622    0.1169   59.4702 H       1  ZINC000364058410    0.0800
     39 H39        -7.5710   -1.1039   58.1741 H       1  ZINC000364058410    0.0700
     40 H40        -9.9219    0.6336   59.0568 H       1  ZINC000364058410    0.0800
     41 H41        -9.0264    0.7538   57.5203 H       1  ZINC000364058410    0.0900
     42 H42        -8.5363   -0.7112   54.5178 H       1  ZINC000364058410    0.1500
     43 H43        -8.1029    1.4907   53.3111 H       1  ZINC000364058410    0.1500
     44 H44        -9.6572    3.3719   53.9784 H       1  ZINC000364058410    0.1700
     45 H45       -13.6458   -1.2708   58.5196 H       1  ZINC000364058410    0.0900
     46 H46       -14.1180   -2.7757   59.4245 H       1  ZINC000364058410    0.1100
     47 H47       -13.8434    0.8703   54.5953 H       1  ZINC000364058410    0.1800
@<TRIPOS>BOND
     1     1     2    1
     2     1    27    1
     3     1    28    1
     4     1    29    1
     5     2    26    1
     6     2     3    2
     7     3     4    1
     8     3    30    1
     9     4     5    1
    10     4    25    1
    11     5    24    1
    12     5     6    1
    13     5    31    1
    14     6     7    1
    15     6    32    1
    16     6    33    1
    17     7     8   am
    18     7    24    1
    19     8     9    2
    20     8    10    1
    21    10    11    1
    22    10    16    1
    23    10    12    1
    24    12    13    1
    25    12    34    1
    26    12    35    1
    27    13    14    1
    28    13    36    1
    29    13    37    1
    30    14    15    1
    31    14    38    1
    32    14    39    1
    33    15    16    1
    34    15    40    1
    35    15    41    1
    36    16    17   am
    37    17    18    2
    38    17    19    1
    39    19    23    1
    40    19    20    2
    41    20    21    1
    42    20    42    1
    43    21    22    2
    44    21    43    1
    45    22    23    1
    46    22    44    1
    47    24    45    1
    48    24    46    1
    49    25    26    2
    50    26    47    1
@<TRIPOS>SUBSTRUCTURE
     1 ZINC000364058410        1 TEMP              0 ****  ****    0 ROOT


##########                                Name:    ZINC000879023512
##########                DOCK_Rotatable_Bonds:                   4
##########                         Heavy_Atoms:                  20
##########                    Molecular_Weight:             346.156
##########                DOCK_Rotatable_Bonds:                   4
##########                       Formal_Charge:        -5.96046e-08
##########                     HBond_Acceptors:                   7
##########                        HBond_Donors:                   1
##########                         Heavy_Atoms:                  20
##########                          Grid_Score:          -24.365555
##########                     Grid_vdw_energy:          -24.000731
##########                      Grid_es_energy:           -0.364825
##########           Internal_energy_repulsive:            3.568010

@<TRIPOS>MOLECULE
ZINC000879023512
 33 34 1 0 0
SMALL
USER_CHARGES


@<TRIPOS>ATOM
      1 O1         -4.3780    2.7547   52.5142 O.2     1  ZINC000879023512   -0.5600
      2 C2         -5.0411    3.0072   51.5268 C.2     1  ZINC000879023512    0.7200
      3 N3         -4.4862    2.9185   50.3017 N.am    1  ZINC000879023512   -0.6800
      4 C4         -3.1451    2.5410   50.1666 C.ar    1  ZINC000879023512    0.1800
      5 C5         -2.1435    3.3178   50.7335 C.ar    1  ZINC000879023512   -0.0900
      6 C6         -0.8208    2.9431   50.5986 C.ar    1  ZINC000879023512   -0.0700
      7 C7         -0.4936    1.7954   49.8991 C.ar    1  ZINC000879023512   -0.0700
      8 Br8         1.3182    1.2856   49.7165 Br      1  ZINC000879023512    0.0200
      9 C9         -1.4899    1.0194   49.3331 C.ar    1  ZINC000879023512    0.0000
     10 N10        -1.1360   -0.2081   48.5854 N.pl3   1  ZINC000879023512    0.0200
     11 O11        -2.0124   -0.8915   48.0870 O.2     1  ZINC000879023512   -0.1500
     12 O12         0.0315   -0.5347   48.4684 O.2     1  ZINC000879023512   -0.1300
     13 C13        -2.8141    1.3859   49.4702 C.ar    1  ZINC000879023512   -0.0500
     14 N14        -6.3324    3.3706   51.6570 N.am    1  ZINC000879023512   -0.6300
     15 C15        -7.0586    3.5128   52.9275 C.3     1  ZINC000879023512    0.0900
     16 C16        -8.5073    3.9187   52.5843 C.3     1  ZINC000879023512   -0.1200
     17 C17        -8.6668    3.4319   51.1198 C.3     1  ZINC000879023512   -0.1400
     18 H18        -8.9127    2.3705   51.0854 H       1  ZINC000879023512    0.1000
     19 C19        -9.7183    4.2596   50.3781 C.3     1  ZINC000879023512    0.0700
     20 F20       -10.9512    4.1378   51.0280 F       1  ZINC000879023512   -0.2100
     21 C21        -7.2488    3.6978   50.5497 C.3     1  ZINC000879023512    0.1300
     22 H22        -5.0163    3.1160   49.5138 H       1  ZINC000879023512    0.4200
     23 H23        -2.3984    4.2144   51.2790 H       1  ZINC000879023512    0.1600
     24 H24        -0.0414    3.5470   51.0394 H       1  ZINC000879023512    0.1600
     25 H25        -3.5912    0.7798   49.0286 H       1  ZINC000879023512    0.1800
     26 H26        -7.0566    2.5638   53.4638 H       1  ZINC000879023512    0.0700
     27 H27        -6.5913    4.2863   53.5370 H       1  ZINC000879023512    0.0700
     28 H28        -9.2155    3.4106   53.2389 H       1  ZINC000879023512    0.0900
     29 H29        -8.6300    4.9999   52.6467 H       1  ZINC000879023512    0.0900
     30 H30        -9.4152    5.3066   50.3674 H       1  ZINC000879023512    0.0800
     31 H31        -9.8100    3.8974   49.3542 H       1  ZINC000879023512    0.0800
     32 H32        -7.1459    4.7439   50.2614 H       1  ZINC000879023512    0.0800
     33 H33        -7.0549    3.0475   49.6966 H       1  ZINC000879023512    0.0900
@<TRIPOS>BOND
     1     1     2    2
     2     2     3   am
     3     2    14   am
     4     3     4    1
     5     3    22    1
     6     4    13   ar
     7     4     5   ar
     8     5     6   ar
     9     5    23    1
    10     6     7   ar
    11     6    24    1
    12     7     8    1
    13     7     9   ar
    14     9    10    1
    15     9    13   ar
    16    10    11    2
    17    10    12    2
    18    13    25    1
    19    14    21    1
    20    14    15    1
    21    15    16    1
    22    15    26    1
    23    15    27    1
    24    16    17    1
    25    16    28    1
    26    16    29    1
    27    17    18    1
    28    17    19    1
    29    17    21    1
    30    19    20    1
    31    19    30    1
    32    19    31    1
    33    21    32    1
    34    21    33    1
@<TRIPOS>SUBSTRUCTURE
     1 ZINC000879023512        1 TEMP              0 ****  ****    0 ROOT


##########                                Name:    ZINC000828026236
##########                DOCK_Rotatable_Bonds:                   1
##########                         Heavy_Atoms:                  19
##########                    Molecular_Weight:             383.045
##########                DOCK_Rotatable_Bonds:                   1
##########                       Formal_Charge:                   0
##########                     HBond_Acceptors:                   5
##########                        HBond_Donors:                   0
##########                         Heavy_Atoms:                  19
##########                          Grid_Score:          -24.151747
##########                     Grid_vdw_energy:          -23.799789
##########                      Grid_es_energy:           -0.351957
##########           Internal_energy_repulsive:            2.299952

@<TRIPOS>MOLECULE
ZINC000828026236
 28 30 1 0 0
SMALL
USER_CHARGES


@<TRIPOS>ATOM
      1 N1         -7.5762   -2.8063   59.6009 N.1     1  ZINC000828026236   -0.3800
      2 C2         -7.9785   -1.7866   59.8988 C.1     1  ZINC000828026236    0.2600
      3 C3         -8.4856   -0.5011   60.2742 C.ar    1  ZINC000828026236   -0.0500
      4 C4         -8.5200   -0.1137   61.6184 C.ar    1  ZINC000828026236    0.0100
      5 C5         -9.0200    1.1399   61.9290 C.ar    1  ZINC000828026236   -0.1600
      6 Br6        -9.0908    1.7185   63.7279 Br      1  ZINC000828026236   -0.0100
      7 C7         -9.4667    1.9660   60.9128 C.ar    1  ZINC000828026236    0.1800
      8 N8         -9.4255    1.5816   59.6515 N.ar    1  ZINC000828026236   -0.5000
      9 C9         -8.9524    0.3970   59.2987 C.ar    1  ZINC000828026236    0.3600
     10 N10        -8.9284    0.0356   57.9625 N.3     1  ZINC000828026236   -0.4900
     11 C11        -8.5761    1.1819   57.1130 C.3     1  ZINC000828026236    0.0500
     12 C12        -8.1951    0.6882   55.7115 C.3     1  ZINC000828026236    0.1100
     13 N13        -9.2429   -0.2242   55.2463 N.pl3   1  ZINC000828026236   -0.4400
     14 C14        -9.4914   -0.6593   53.9815 C.2     1  ZINC000828026236   -0.0300
     15 Br15       -8.5282   -0.2021   52.4198 Br      1  ZINC000828026236    0.0200
     16 C16       -10.5599   -1.4814   54.0585 C.2     1  ZINC000828026236    0.0300
     17 N17       -10.9481   -1.5417   55.3437 N.2     1  ZINC000828026236   -0.4700
     18 C18       -10.1658   -0.7943   56.0620 C.2     1  ZINC000828026236    0.2300
     19 C19       -10.2138   -0.5559   57.5524 C.3     1  ZINC000828026236    0.1500
     20 H20        -8.1659   -0.7761   62.3945 H       1  ZINC000828026236    0.1600
     21 H21        -9.8565    2.9432   61.1568 H       1  ZINC000828026236    0.1800
     22 H22        -9.4299    1.8558   57.0406 H       1  ZINC000828026236    0.0700
     23 H23        -7.7318    1.7132   57.5524 H       1  ZINC000828026236    0.1100
     24 H24        -8.1175    1.5363   55.0312 H       1  ZINC000828026236    0.1100
     25 H25        -7.2415    0.1618   55.7536 H       1  ZINC000828026236    0.1000
     26 H26       -11.0221   -1.9999   53.2315 H       1  ZINC000828026236    0.1800
     27 H27       -10.3660   -1.5021   58.0718 H       1  ZINC000828026236    0.1200
     28 H28       -11.0271    0.1299   57.7896 H       1  ZINC000828026236    0.1000
@<TRIPOS>BOND
     1     1     2    3
     2     2     3    1
     3     3     9   ar
     4     3     4   ar
     5     4     5   ar
     6     4    20    1
     7     5     6    1
     8     5     7   ar
     9     7     8   ar
    10     7    21    1
    11     8     9   ar
    12     9    10    1
    13    10    19    1
    14    10    11    1
    15    11    12    1
    16    11    22    1
    17    11    23    1
    18    12    13    1
    19    12    24    1
    20    12    25    1
    21    13    18    1
    22    13    14    1
    23    14    15    1
    24    14    16    2
    25    16    17    1
    26    16    26    1
    27    17    18    2
    28    18    19    1
    29    19    27    1
    30    19    28    1
@<TRIPOS>SUBSTRUCTURE
     1 ZINC000828026236        1 TEMP              0 ****  ****    0 ROOT


##########                                Name:    ZINC001211202056
##########                DOCK_Rotatable_Bonds:                   4
##########                         Heavy_Atoms:                  23
##########                    Molecular_Weight:             386.181
##########                DOCK_Rotatable_Bonds:                   4
##########                       Formal_Charge:           0.0199999
##########                     HBond_Acceptors:                  11
##########                        HBond_Donors:                   3
##########                         Heavy_Atoms:                  23
##########                          Grid_Score:          -24.114609
##########                     Grid_vdw_energy:          -22.697802
##########                      Grid_es_energy:           -1.416807
##########           Internal_energy_repulsive:            5.412792

@<TRIPOS>MOLECULE
ZINC001211202056
 31 32 1 0 0
SMALL
USER_CHARGES


@<TRIPOS>ATOM
      1 N1        -10.3745    1.9917   63.6953 N.pl3   1  ZINC001211202056   -0.8500
      2 C2         -9.9980    1.3064   62.5370 C.ar    1  ZINC001211202056    0.2900
      3 C3         -9.0506    0.2937   62.6046 C.ar    1  ZINC001211202056   -0.2000
      4 C4         -8.6805   -0.3818   61.4577 C.ar    1  ZINC001211202056    0.0400
      5 C5         -9.2518   -0.0507   60.2431 C.ar    1  ZINC001211202056   -0.7300
      6 S6         -8.7764   -0.9152   58.7833 S.o2    1  ZINC001211202056    2.6900
      7 O7         -9.2830   -0.1635   57.6889 O.2     1  ZINC001211202056   -0.9400
      8 O8         -7.4002   -1.2344   58.9361 O.2     1  ZINC001211202056   -0.9300
      9 N9         -9.5930   -2.3558   58.7789 N.am    1  ZINC001211202056   -1.0500
     10 C10       -10.9907   -2.3671   58.7785 C.ar    1  ZINC001211202056    0.1600
     11 C11       -11.6991   -2.1599   59.9585 C.ar    1  ZINC001211202056   -0.1200
     12 C12       -13.0840   -2.1797   59.9075 C.ar    1  ZINC001211202056   -0.0800
     13 C13       -13.7122   -2.4026   58.6973 C.ar    1  ZINC001211202056    0.0400
     14 C14       -15.2178   -2.4254   58.6351 C.3     1  ZINC001211202056    0.5300
     15 F15       -15.7380   -1.5762   59.6177 F       1  ZINC001211202056   -0.1700
     16 F16       -15.6391   -1.9918   57.3734 F       1  ZINC001211202056   -0.1600
     17 F17       -15.6741   -3.7292   58.8563 F       1  ZINC001211202056   -0.1700
     18 N18       -13.0130   -2.5954   57.5953 N.ar    1  ZINC001211202056   -0.4100
     19 C19       -11.6945   -2.5799   57.5980 C.ar    1  ZINC001211202056    0.1600
     20 Cl20      -10.8287   -2.8396   56.1158 Cl      1  ZINC001211202056    0.0000
     21 C21       -10.1961    0.9576   60.1713 C.ar    1  ZINC001211202056    0.0400
     22 C22       -10.5754    1.6332   61.3153 C.ar    1  ZINC001211202056   -0.1400
     23 Cl23      -11.7606    2.8985   61.2248 Cl      1  ZINC001211202056   -0.0500
     24 H24       -11.0395    2.6963   63.6475 H       1  ZINC001211202056    0.4100
     25 H25        -9.9738    1.7600   64.5477 H       1  ZINC001211202056    0.4100
     26 H26        -8.6031    0.0346   63.5527 H       1  ZINC001211202056    0.1400
     27 H27        -7.9435   -1.1696   61.5099 H       1  ZINC001211202056    0.1500
     28 H28        -9.1012   -3.1920   58.7767 H       1  ZINC001211202056    0.4400
     29 H29       -11.1822   -1.9881   60.8911 H       1  ZINC001211202056    0.2000
     30 H30       -13.6656   -2.0229   60.8039 H       1  ZINC001211202056    0.1700
     31 H31       -10.6405    1.2138   59.2209 H       1  ZINC001211202056    0.1500
@<TRIPOS>BOND
     1     1     2    1
     2     1    24    1
     3     1    25    1
     4     2    22   ar
     5     2     3   ar
     6     3     4   ar
     7     3    26    1
     8     4     5   ar
     9     4    27    1
    10     5     6    1
    11     5    21   ar
    12     6     7    2
    13     6     8    2
    14     6     9   am
    15     9    10    1
    16     9    28    1
    17    10    19   ar
    18    10    11   ar
    19    11    12   ar
    20    11    29    1
    21    12    13   ar
    22    12    30    1
    23    13    14    1
    24    13    18   ar
    25    14    15    1
    26    14    16    1
    27    14    17    1
    28    18    19   ar
    29    19    20    1
    30    21    22   ar
    31    21    31    1
    32    22    23    1
@<TRIPOS>SUBSTRUCTURE
     1 ZINC001211202056        1 TEMP              0 ****  ****    0 ROOT


##########                                Name:    ZINC000820901229
##########                DOCK_Rotatable_Bonds:                   3
##########                         Heavy_Atoms:                  18
##########                    Molecular_Weight:             331.233
##########                DOCK_Rotatable_Bonds:                   3
##########                       Formal_Charge:           0.0099999
##########                     HBond_Acceptors:                   5
##########                        HBond_Donors:                   1
##########                         Heavy_Atoms:                  18
##########                          Grid_Score:          -24.057358
##########                     Grid_vdw_energy:          -23.758856
##########                      Grid_es_energy:           -0.298502
##########           Internal_energy_repulsive:            3.713648

@<TRIPOS>MOLECULE
ZINC000820901229
 33 35 1 0 0
SMALL
USER_CHARGES


@<TRIPOS>ATOM
      1 O1        -10.1037   -1.0439   52.9100 O.2     1  ZINC000820901229   -0.5300
      2 C2         -9.3977   -0.7815   53.8651 C.2     1  ZINC000820901229    0.6000
      3 N3         -8.3479    0.0509   53.7185 N.am    1  ZINC000820901229   -0.7100
      4 C4         -8.0534    0.6348   52.4076 C.3     1  ZINC000820901229    0.1600
      5 H5         -8.6170    0.1128   51.6343 H       1  ZINC000820901229    0.1000
      6 C6         -6.5475    0.5330   52.1162 C.3     1  ZINC000820901229   -0.1300
      7 C7         -6.1903    1.1884   50.7855 C.3     1  ZINC000820901229   -0.1100
      8 C8         -6.6781    2.6456   50.7290 C.3     1  ZINC000820901229   -0.1100
      9 C9         -8.1748    2.6301   50.9612 C.3     1  ZINC000820901229    0.0800
     10 H10        -8.6504    1.9591   50.2459 H       1  ZINC000820901229    0.0700
     11 O11        -8.8538    3.8807   50.9697 O.3     1  ZINC000820901229   -0.3700
     12 C12       -10.1217    3.6216   51.6249 C.3     1  ZINC000820901229    0.0500
     13 C13        -9.9036    2.4196   52.5801 C.3     1  ZINC000820901229   -0.1500
     14 C14        -8.4165    2.1093   52.4053 C.3     1  ZINC000820901229   -0.1400
     15 H15        -7.8176    2.6608   53.1299 H       1  ZINC000820901229    0.0900
     16 C16        -9.6937   -1.3683   55.1828 C.2     1  ZINC000820901229    0.0100
     17 C17       -10.3177   -2.5572   55.3389 C.2     1  ZINC000820901229   -0.2200
     18 S18       -10.4734   -2.8842   57.0094 S.3     1  ZINC000820901229    0.3100
     19 C19        -9.6967   -1.4155   57.4041 C.2     1  ZINC000820901229   -0.0100
     20 Br20       -9.3620   -0.8134   59.1652 Br      1  ZINC000820901229    0.0700
     21 N21        -9.3652   -0.7781   56.3357 N.2     1  ZINC000820901229   -0.4100
     22 H22        -7.7874    0.2634   54.4811 H       1  ZINC000820901229    0.4100
     23 H23        -5.9957    1.0268   52.9159 H       1  ZINC000820901229    0.0700
     24 H24        -6.2613   -0.5182   52.0838 H       1  ZINC000820901229    0.0700
     25 H25        -5.1080    1.1695   50.6580 H       1  ZINC000820901229    0.0800
     26 H26        -6.6536    0.6257   49.9751 H       1  ZINC000820901229    0.0700
     27 H27        -6.1882    3.2309   51.5073 H       1  ZINC000820901229    0.0700
     28 H28        -6.4593    3.0720   49.7500 H       1  ZINC000820901229    0.0800
     29 H29       -10.4307    4.4976   52.1951 H       1  ZINC000820901229    0.0900
     30 H30       -10.8794    3.3727   50.8820 H       1  ZINC000820901229    0.0600
     31 H31       -10.1168    2.7030   53.6108 H       1  ZINC000820901229    0.0800
     32 H32       -10.5175    1.5711   52.2779 H       1  ZINC000820901229    0.0800
     33 H33       -10.6622   -3.1957   54.5388 H       1  ZINC000820901229    0.2000
@<TRIPOS>BOND
     1     1     2    2
     2     2     3   am
     3     2    16    1
     4     3     4    1
     5     3    22    1
     6     4     5    1
     7     4    14    1
     8     4     6    1
     9     6     7    1
    10     6    23    1
    11     6    24    1
    12     7     8    1
    13     7    25    1
    14     7    26    1
    15     8     9    1
    16     8    27    1
    17     8    28    1
    18     9    10    1
    19     9    14    1
    20     9    11    1
    21    11    12    1
    22    12    13    1
    23    12    29    1
    24    12    30    1
    25    13    14    1
    26    13    31    1
    27    13    32    1
    28    14    15    1
    29    16    21    1
    30    16    17    2
    31    17    18    1
    32    17    33    1
    33    18    19    1
    34    19    20    1
    35    19    21    2
@<TRIPOS>SUBSTRUCTURE
     1 ZINC000820901229        1 TEMP              0 ****  ****    0 ROOT


##########                                Name:    ZINC000950547210
##########                DOCK_Rotatable_Bonds:                   5
##########                         Heavy_Atoms:                  25
##########                    Molecular_Weight:              346.47
##########                DOCK_Rotatable_Bonds:                   5
##########                       Formal_Charge:         5.58794e-07
##########                     HBond_Acceptors:                   5
##########                        HBond_Donors:                   1
##########                         Heavy_Atoms:                  25
##########                          Grid_Score:          -24.029526
##########                     Grid_vdw_energy:          -24.120672
##########                      Grid_es_energy:            0.091147
##########           Internal_energy_repulsive:           19.600687

@<TRIPOS>MOLECULE
ZINC000950547210
 55 58 1 0 0
SMALL
USER_CHARGES


@<TRIPOS>ATOM
      1 O1         -8.4978    2.2215   53.9071 O.2     1  ZINC000950547210   -0.5200
      2 C2         -7.9501    1.2148   53.5103 C.2     1  ZINC000950547210    0.5200
      3 N3         -8.4572    0.0051   53.8195 N.am    1  ZINC000950547210   -0.7300
      4 C4         -9.6669   -0.0941   54.6400 C.3     1  ZINC000950547210    0.1300
      5 H5        -10.3937    0.6471   54.3076 H       1  ZINC000950547210    0.0900
      6 C6        -10.2658   -1.4955   54.4996 C.3     1  ZINC000950547210   -0.1300
      7 C7        -11.5475   -1.5898   55.3305 C.3     1  ZINC000950547210   -0.1300
      8 C8        -11.2132   -1.3525   56.8065 C.3     1  ZINC000950547210    0.1000
      9 N9        -10.5064   -0.0705   56.9310 N.am    1  ZINC000950547210   -0.6100
     10 C10       -10.9457    0.8758   57.7843 C.2     1  ZINC000950547210    0.5600
     11 O11       -10.3518    1.9329   57.8782 O.2     1  ZINC000950547210   -0.5200
     12 C12       -12.1436    0.6300   58.6020 C.2     1  ZINC000950547210   -0.1400
     13 C13       -12.0979   -0.3030   59.5358 C.2     1  ZINC000950547210   -0.1500
     14 C14       -13.2744   -0.6289   60.4121 C.3     1  ZINC000950547210    0.0900
     15 O15       -14.2467    0.4155   60.3368 O.3     1  ZINC000950547210   -0.3700
     16 C16       -14.5887    0.7693   58.9913 C.3     1  ZINC000950547210    0.0600
     17 C17       -13.3765    1.4539   58.3501 C.3     1  ZINC000950547210   -0.1100
     18 C18        -9.3114    0.1609   56.1080 C.3     1  ZINC000950547210    0.1000
     19 C19        -6.7058    1.3168   52.6662 C.3     1  ZINC000950547210   -0.1000
     20 H20        -6.0391    0.4867   52.8999 H       1  ZINC000950547210    0.1000
     21 C21        -5.9961    2.6396   52.9619 C.3     1  ZINC000950547210   -0.1100
     22 C22        -5.9049    3.4675   51.6784 C.3     1  ZINC000950547210   -0.0900
     23 C23        -5.1148    2.6893   50.6245 C.3     1  ZINC000950547210   -0.1100
     24 C24        -5.8245    1.3665   50.3289 C.3     1  ZINC000950547210   -0.1100
     25 C25        -7.0879    1.2629   51.1857 C.3     1  ZINC000950547210   -0.0600
     26 C26        -8.0236    2.4281   50.8577 C.3     1  ZINC000950547210   -0.1300
     27 C27        -7.3138    3.7509   51.1534 C.3     1  ZINC000950547210   -0.1200
     28 H28        -8.0213   -0.8000   53.4989 H       1  ZINC000950547210    0.4000
     29 H29       -10.4971   -1.6883   53.4520 H       1  ZINC000950547210    0.0800
     30 H30        -9.5476   -2.2345   54.8547 H       1  ZINC000950547210    0.0700
     31 H31       -12.2568   -0.8344   54.9921 H       1  ZINC000950547210    0.0700
     32 H32       -11.9861   -2.5806   55.2115 H       1  ZINC000950547210    0.0900
     33 H33       -12.1338   -1.3203   57.3891 H       1  ZINC000950547210    0.0900
     34 H34       -10.5757   -2.1582   57.1709 H       1  ZINC000950547210    0.0700
     35 H35       -11.1793   -0.8537   59.6747 H       1  ZINC000950547210    0.1200
     36 H36       -13.7234   -1.5653   60.0811 H       1  ZINC000950547210    0.0700
     37 H37       -12.9381   -0.7361   61.4433 H       1  ZINC000950547210    0.1100
     38 H38       -14.8457   -0.1293   58.4304 H       1  ZINC000950547210    0.0600
     39 H39       -15.4353    1.4559   58.9970 H       1  ZINC000950547210    0.1000
     40 H40       -13.2508    2.4473   58.7808 H       1  ZINC000950547210    0.0900
     41 H41       -13.5357    1.5419   57.2755 H       1  ZINC000950547210    0.0900
     42 H42        -8.5185   -0.5212   56.4151 H       1  ZINC000950547210    0.0700
     43 H43        -8.9774    1.1912   56.2304 H       1  ZINC000950547210    0.1000
     44 H44        -6.5589    3.1941   53.7127 H       1  ZINC000950547210    0.0700
     45 H45        -4.9923    2.4378   53.3360 H       1  ZINC000950547210    0.0700
     46 H46        -5.3994    4.4099   51.8891 H       1  ZINC000950547210    0.0700
     47 H47        -5.0500    3.2791   49.7101 H       1  ZINC000950547210    0.0600
     48 H48        -4.1111    2.4874   50.9986 H       1  ZINC000950547210    0.0600
     49 H49        -6.0968    1.3281   49.2740 H       1  ZINC000950547210    0.0700
     50 H50        -5.1579    0.5364   50.5625 H       1  ZINC000950547210    0.0600
     51 H51        -7.5934    0.3206   50.9751 H       1  ZINC000950547210    0.0800
     52 H52        -8.2958    2.3897   49.8029 H       1  ZINC000950547210    0.0600
     53 H53        -8.9236    2.3544   51.4681 H       1  ZINC000950547210    0.0900
     54 H54        -7.8768    4.3054   51.9042 H       1  ZINC000950547210    0.0600
     55 H55        -7.2489    4.3407   50.2390 H       1  ZINC000950547210    0.0600
@<TRIPOS>BOND
     1     1     2    2
     2     2     3   am
     3     2    19    1
     4     3     4    1
     5     3    28    1
     6     4     5    1
     7     4    18    1
     8     4     6    1
     9     6     7    1
    10     6    29    1
    11     6    30    1
    12     7     8    1
    13     7    31    1
    14     7    32    1
    15     8     9    1
    16     8    33    1
    17     8    34    1
    18     9    10   am
    19     9    18    1
    20    10    11    2
    21    10    12    1
    22    12    17    1
    23    12    13    2
    24    13    14    1
    25    13    35    1
    26    14    15    1
    27    14    36    1
    28    14    37    1
    29    15    16    1
    30    16    17    1
    31    16    38    1
    32    16    39    1
    33    17    40    1
    34    17    41    1
    35    18    42    1
    36    18    43    1
    37    19    20    1
    38    19    25    1
    39    19    21    1
    40    21    22    1
    41    21    44    1
    42    21    45    1
    43    22    27    1
    44    22    23    1
    45    22    46    1
    46    23    24    1
    47    23    47    1
    48    23    48    1
    49    24    25    1
    50    24    49    1
    51    24    50    1
    52    25    26    1
    53    25    51    1
    54    26    27    1
    55    26    52    1
    56    26    53    1
    57    27    54    1
    58    27    55    1
@<TRIPOS>SUBSTRUCTURE
     1 ZINC000950547210        1 TEMP              0 ****  ****    0 ROOT


##########                                Name:    ZINC000966038509
##########                DOCK_Rotatable_Bonds:                   5
##########                         Heavy_Atoms:                  25
##########                    Molecular_Weight:             346.445
##########                DOCK_Rotatable_Bonds:                   5
##########                       Formal_Charge:           0.0299998
##########                     HBond_Acceptors:                   5
##########                        HBond_Donors:                   1
##########                         Heavy_Atoms:                  25
##########                          Grid_Score:          -23.886429
##########                     Grid_vdw_energy:          -22.931379
##########                      Grid_es_energy:           -0.955049
##########           Internal_energy_repulsive:           19.676884

@<TRIPOS>MOLECULE
ZINC000966038509
 52 54 1 0 0
SMALL
USER_CHARGES


@<TRIPOS>ATOM
      1 C1        -13.7881   -1.4672   56.1052 C.3     1  ZINC000966038509   -0.1200
      2 C2        -12.9309   -0.8297   55.0422 C.ar    1  ZINC000966038509   -0.0100
      3 C3        -13.5176   -0.1299   54.0099 C.ar    1  ZINC000966038509   -0.1600
      4 C4        -12.7300    0.4566   53.0310 C.ar    1  ZINC000966038509    0.1300
      5 F5        -13.3102    1.1411   52.0210 F       1  ZINC000966038509   -0.1300
      6 C6        -11.3492    0.3436   53.0851 C.ar    1  ZINC000966038509   -0.1600
      7 C7        -10.7521   -0.3541   54.1131 C.ar    1  ZINC000966038509   -0.0100
      8 C8         -9.2511   -0.4766   54.1703 C.3     1  ZINC000966038509   -0.1200
      9 C9        -11.5403   -0.9423   55.1046 C.ar    1  ZINC000966038509   -0.1500
     10 C10       -10.9060   -1.6911   56.2086 C.2     1  ZINC000966038509    0.5700
     11 O11       -10.7985   -2.9001   56.1402 O.2     1  ZINC000966038509   -0.5200
     12 N12       -10.4462   -1.0340   57.2919 N.am    1  ZINC000966038509   -0.7100
     13 C13        -9.8156   -1.7766   58.3860 C.3     1  ZINC000966038509    0.1300
     14 H14        -9.6504   -2.8167   58.1053 H       1  ZINC000966038509    0.1200
     15 C15        -8.4913   -1.1024   58.8237 C.3     1  ZINC000966038509    0.0900
     16 N16        -8.9043   -0.0015   59.7131 N.am    1  ZINC000966038509   -0.6200
     17 C17        -8.1903    1.1132   59.9668 C.2     1  ZINC000966038509    0.5400
     18 O18        -7.1079    1.2722   59.4435 O.2     1  ZINC000966038509   -0.5300
     19 C19        -8.7372    2.1618   60.9007 C.3     1  ZINC000966038509   -0.1100
     20 C20        -8.5480    1.7266   62.3751 C.3     1  ZINC000966038509   -0.1100
     21 C21        -8.5714    3.0757   63.1355 C.3     1  ZINC000966038509   -0.1200
     22 C22        -7.8170    4.0477   62.2048 C.3     1  ZINC000966038509   -0.1200
     23 C23        -7.9225    3.4666   60.7839 C.3     1  ZINC000966038509   -0.1100
     24 C24       -10.2241   -0.3207   60.2768 C.3     1  ZINC000966038509    0.1000
     25 C25       -10.6601   -1.6783   59.6840 C.3     1  ZINC000966038509   -0.1100
     26 H26       -10.4160   -2.4930   60.3658 H       1  ZINC000966038509    0.1000
     27 C27       -12.1560   -1.6735   59.3630 C.3     1  ZINC000966038509   -0.1400
     28 H28       -13.9497   -0.7568   56.9160 H       1  ZINC000966038509    0.0800
     29 H29       -14.7483   -1.7522   55.6750 H       1  ZINC000966038509    0.0800
     30 H30       -13.2864   -2.3536   56.4933 H       1  ZINC000966038509    0.0700
     31 H31       -14.5927   -0.0385   53.9631 H       1  ZINC000966038509    0.1400
     32 H32       -10.7403    0.8026   52.3203 H       1  ZINC000966038509    0.1400
     33 H33        -8.8401    0.3563   54.7408 H       1  ZINC000966038509    0.0800
     34 H34        -8.9814   -1.4159   54.6531 H       1  ZINC000966038509    0.0700
     35 H35        -8.8463   -0.4589   53.1584 H       1  ZINC000966038509    0.0800
     36 H36       -10.5331   -0.0696   57.3471 H       1  ZINC000966038509    0.4000
     37 H37        -7.8649   -1.8121   59.3641 H       1  ZINC000966038509    0.0800
     38 H38        -7.9605   -0.7104   57.9562 H       1  ZINC000966038509    0.0800
     39 H39        -9.7898    2.3491   60.6882 H       1  ZINC000966038509    0.0900
     40 H40        -9.3697    1.0871   62.6976 H       1  ZINC000966038509    0.0700
     41 H41        -7.5903    1.2238   62.5095 H       1  ZINC000966038509    0.0700
     42 H42        -9.5975    3.4111   63.2862 H       1  ZINC000966038509    0.0700
     43 H43        -8.0548    2.9842   64.0910 H       1  ZINC000966038509    0.0700
     44 H44        -8.2801    5.0337   62.2403 H       1  ZINC000966038509    0.0700
     45 H45        -6.7710    4.1150   62.5040 H       1  ZINC000966038509    0.0700
     46 H46        -6.9277    3.2519   60.3935 H       1  ZINC000966038509    0.0800
     47 H47        -8.4368    4.1706   60.1298 H       1  ZINC000966038509    0.0700
     48 H48       -10.1554   -0.3950   61.3621 H       1  ZINC000966038509    0.0800
     49 H49       -10.9417    0.4519   60.0008 H       1  ZINC000966038509    0.0700
     50 H50       -12.3735   -0.8713   58.6577 H       1  ZINC000966038509    0.0600
     51 H51       -12.4361   -2.6304   58.9226 H       1  ZINC000966038509    0.0700
     52 H52       -12.7239   -1.5152   60.2797 H       1  ZINC000966038509    0.0700
@<TRIPOS>BOND
     1     1     2    1
     2     1    28    1
     3     1    29    1
     4     1    30    1
     5     2     9   ar
     6     2     3   ar
     7     3     4   ar
     8     3    31    1
     9     4     5    1
    10     4     6   ar
    11     6     7   ar
    12     6    32    1
    13     7     8    1
    14     7     9   ar
    15     8    33    1
    16     8    34    1
    17     8    35    1
    18     9    10    1
    19    10    11    2
    20    10    12   am
    21    12    13    1
    22    12    36    1
    23    13    14    1
    24    13    25    1
    25    13    15    1
    26    15    16    1
    27    15    37    1
    28    15    38    1
    29    16    17   am
    30    16    24    1
    31    17    18    2
    32    17    19    1
    33    19    23    1
    34    19    20    1
    35    19    39    1
    36    20    21    1
    37    20    40    1
    38    20    41    1
    39    21    22    1
    40    21    42    1
    41    21    43    1
    42    22    23    1
    43    22    44    1
    44    22    45    1
    45    23    46    1
    46    23    47    1
    47    24    25    1
    48    24    48    1
    49    24    49    1
    50    25    26    1
    51    25    27    1
    52    27    50    1
    53    27    51    1
    54    27    52    1
@<TRIPOS>SUBSTRUCTURE
     1 ZINC000966038509        1 TEMP              0 ****  ****    0 ROOT


##########                                Name:    ZINC000004040798
##########                DOCK_Rotatable_Bonds:                   3
##########                         Heavy_Atoms:                  22
##########                    Molecular_Weight:             361.151
##########                DOCK_Rotatable_Bonds:                   3
##########                       Formal_Charge:           0.0200003
##########                     HBond_Acceptors:                   6
##########                        HBond_Donors:                   1
##########                         Heavy_Atoms:                  22
##########                          Grid_Score:          -23.845558
##########                     Grid_vdw_energy:          -25.767548
##########                      Grid_es_energy:            1.921990
##########           Internal_energy_repulsive:            2.130834

@<TRIPOS>MOLECULE
ZINC000004040798
 31 33 1 0 0
SMALL
USER_CHARGES


@<TRIPOS>ATOM
      1 O1         -8.0854   -1.3234   60.8512 O.2     1  ZINC000004040798   -0.4800
      2 C2         -8.5720   -0.2422   61.1242 C.2     1  ZINC000004040798    0.6100
      3 N3         -9.2456    0.4503   60.1844 N.am    1  ZINC000004040798   -0.6600
      4 C4         -9.3804   -0.0713   58.8939 C.ar    1  ZINC000004040798    0.2300
      5 C5        -10.2770   -1.1032   58.6505 C.ar    1  ZINC000004040798   -0.1300
      6 C6        -10.4078   -1.6164   57.3746 C.ar    1  ZINC000004040798   -0.0100
      7 C7         -9.6472   -1.1039   56.3400 C.ar    1  ZINC000004040798   -0.0600
      8 N8         -9.7904   -1.6565   54.9743 N.pl3   1  ZINC000004040798    0.0300
      9 O9        -10.5774   -2.5617   54.7630 O.2     1  ZINC000004040798   -0.1500
     10 O10        -9.1211   -1.2060   54.0618 O.2     1  ZINC000004040798   -0.1500
     11 C11        -8.7535   -0.0756   56.5780 C.ar    1  ZINC000004040798    0.0000
     12 C12        -8.6213    0.4460   57.8506 C.ar    1  ZINC000004040798   -0.1400
     13 Br13       -7.3991    1.8518   58.1755 Br      1  ZINC000004040798    0.0000
     14 C14        -8.4303    0.3058   62.4801 C.2     1  ZINC000004040798   -0.0500
     15 C15        -8.8496    1.5364   62.8736 C.2     1  ZINC000004040798   -0.0800
     16 C16        -8.5037    1.6485   64.2902 C.ar    1  ZINC000004040798   -0.1500
     17 C17        -8.6635    2.6451   65.2554 C.ar    1  ZINC000004040798   -0.0500
     18 C18        -8.2175    2.4318   66.5295 C.ar    1  ZINC000004040798   -0.1400
     19 C19        -7.6071    1.2325   66.8694 C.ar    1  ZINC000004040798   -0.0700
     20 C20        -7.4399    0.2364   65.9315 C.ar    1  ZINC000004040798   -0.1100
     21 C21        -7.8859    0.4301   64.6294 C.ar    1  ZINC000004040798    0.0800
     22 O22        -7.8692   -0.3398   63.5239 O.3     1  ZINC000004040798   -0.1900
     23 H23        -9.6370    1.3105   60.4033 H       1  ZINC000004040798    0.4300
     24 H24       -10.8712   -1.5046   59.4582 H       1  ZINC000004040798    0.1800
     25 H25       -11.1047   -2.4194   57.1851 H       1  ZINC000004040798    0.1700
     26 H26        -8.1608    0.3226   55.7677 H       1  ZINC000004040798    0.1700
     27 H27        -9.3389    2.2815   62.2637 H       1  ZINC000004040798    0.1800
     28 H28        -9.1372    3.5804   64.9961 H       1  ZINC000004040798    0.1400
     29 H29        -8.3404    3.2017   67.2768 H       1  ZINC000004040798    0.1400
     30 H30        -7.2589    1.0782   67.8800 H       1  ZINC000004040798    0.1400
     31 H31        -6.9638   -0.6928   66.2078 H       1  ZINC000004040798    0.1400
@<TRIPOS>BOND
     1     1     2    2
     2     2     3   am
     3     2    14    1
     4     3     4    1
     5     3    23    1
     6     4    12   ar
     7     4     5   ar
     8     5     6   ar
     9     5    24    1
    10     6     7   ar
    11     6    25    1
    12     7     8    1
    13     7    11   ar
    14     8     9    2
    15     8    10    2
    16    11    12   ar
    17    11    26    1
    18    12    13    1
    19    14    22    1
    20    14    15    2
    21    15    16    1
    22    15    27    1
    23    16    21   ar
    24    16    17   ar
    25    17    18   ar
    26    17    28    1
    27    18    19   ar
    28    18    29    1
    29    19    20   ar
    30    19    30    1
    31    20    21   ar
    32    20    31    1
    33    21    22    1
@<TRIPOS>SUBSTRUCTURE
     1 ZINC000004040798        1 TEMP              0 ****  ****    0 ROOT


##########                                Name:    ZINC001173835973
##########                DOCK_Rotatable_Bonds:                   4
##########                         Heavy_Atoms:                  26
##########                    Molecular_Weight:             343.388
##########                DOCK_Rotatable_Bonds:                   4
##########                       Formal_Charge:           -0.010001
##########                     HBond_Acceptors:                   6
##########                        HBond_Donors:                   4
##########                         Heavy_Atoms:                  26
##########                          Grid_Score:          -23.625786
##########                     Grid_vdw_energy:          -23.003979
##########                      Grid_es_energy:           -0.621807
##########           Internal_energy_repulsive:            9.932853

@<TRIPOS>MOLECULE
ZINC001173835973
 43 46 1 0 0
SMALL
USER_CHARGES


@<TRIPOS>ATOM
      1 C1         -6.3545    0.2065   51.7186 C.3     1  ZINC001173835973   -0.1700
      2 C2         -7.7922   -0.0277   52.1052 C.2     1  ZINC001173835973    0.5100
      3 O3         -8.4908   -0.7546   51.4310 O.2     1  ZINC001173835973   -0.5200
      4 N4         -8.3015    0.5706   53.2003 N.am    1  ZINC001173835973   -0.6800
      5 C5         -9.6363    0.3532   53.5593 C.ar    1  ZINC001173835973    0.1800
      6 C6        -10.6391    0.4567   52.6036 C.ar    1  ZINC001173835973   -0.1900
      7 C7        -11.9578    0.2422   52.9570 C.ar    1  ZINC001173835973   -0.0600
      8 C8        -12.2836   -0.0763   54.2608 C.ar    1  ZINC001173835973   -0.1900
      9 C9        -11.2849   -0.1816   55.2222 C.ar    1  ZINC001173835973    0.2200
     10 N10       -11.6147   -0.5035   56.5402 N.pl3   1  ZINC001173835973   -0.6900
     11 C11       -10.7483   -0.1561   57.5833 C.ar    1  ZINC001173835973    0.0400
     12 C12       -10.6483    1.1466   57.9745 C.ar    1  ZINC001173835973    0.2400
     13 N13       -11.4127    2.1258   57.3298 N.pl3   1  ZINC001173835973   -0.8600
     14 C14        -9.7510    1.5271   59.0599 C.ar    1  ZINC001173835973   -0.1100
     15 C15        -9.6442    2.8668   59.4675 C.ar    1  ZINC001173835973   -0.0600
     16 C16        -8.7868    3.1663   60.4914 C.ar    1  ZINC001173835973   -0.1700
     17 C17        -8.0519    2.1534   61.0960 C.ar    1  ZINC001173835973    0.1200
     18 N18        -8.1576    0.9026   60.7088 N.ar    1  ZINC001173835973   -0.4400
     19 C19        -8.9742    0.5488   59.7190 C.ar    1  ZINC001173835973    0.1900
     20 C20        -9.0818   -0.8530   59.2981 C.ar    1  ZINC001173835973    0.1300
     21 N21        -8.3648   -1.8013   59.8969 N.ar    1  ZINC001173835973   -0.4400
     22 C22        -8.4513   -3.0599   59.5304 C.ar    1  ZINC001173835973    0.1000
     23 C23        -9.2943   -3.4612   58.5012 C.ar    1  ZINC001173835973   -0.1500
     24 C24       -10.0579   -2.5332   57.8459 C.ar    1  ZINC001173835973   -0.0700
     25 C25        -9.9635   -1.1911   58.2478 C.ar    1  ZINC001173835973   -0.0400
     26 C26        -9.9590    0.0282   54.8691 C.ar    1  ZINC001173835973   -0.1900
     27 H27        -6.1255   -0.3560   50.8135 H       1  ZINC001173835973    0.1000
     28 H28        -6.1960    1.2693   51.5358 H       1  ZINC001173835973    0.0900
     29 H29        -5.7024   -0.1245   52.5268 H       1  ZINC001173835973    0.0900
     30 H30        -7.7428    1.1518   53.7396 H       1  ZINC001173835973    0.4100
     31 H31       -10.3879    0.7056   51.5831 H       1  ZINC001173835973    0.1200
     32 H32       -12.7354    0.3241   52.2119 H       1  ZINC001173835973    0.1200
     33 H33       -13.3150   -0.2434   54.5337 H       1  ZINC001173835973    0.1200
     34 H34       -12.4442   -0.9679   56.7332 H       1  ZINC001173835973    0.4000
     35 H35       -12.0694    1.8680   56.6641 H       1  ZINC001173835973    0.4100
     36 H36       -11.2859    3.0621   57.5490 H       1  ZINC001173835973    0.4000
     37 H37       -10.2232    3.6406   58.9853 H       1  ZINC001173835973    0.1400
     38 H38        -8.6813    4.1870   60.8284 H       1  ZINC001173835973    0.1400
     39 H39        -7.3779    2.4004   61.9029 H       1  ZINC001173835973    0.1700
     40 H40        -7.8528   -3.8000   60.0409 H       1  ZINC001173835973    0.1600
     41 H41        -9.3467   -4.5023   58.2189 H       1  ZINC001173835973    0.1400
     42 H42       -10.7186   -2.8262   57.0434 H       1  ZINC001173835973    0.1400
     43 H43        -9.1812   -0.0532   55.6138 H       1  ZINC001173835973    0.1400
@<TRIPOS>BOND
     1     1     2    1
     2     1    27    1
     3     1    28    1
     4     1    29    1
     5     2     3    2
     6     2     4   am
     7     4     5    1
     8     4    30    1
     9     5    26   ar
    10     5     6   ar
    11     6     7   ar
    12     6    31    1
    13     7     8   ar
    14     7    32    1
    15     8     9   ar
    16     8    33    1
    17     9    10    1
    18     9    26   ar
    19    10    11    1
    20    10    34    1
    21    11    25   ar
    22    11    12   ar
    23    12    13    1
    24    12    14   ar
    25    13    35    1
    26    13    36    1
    27    14    19   ar
    28    14    15   ar
    29    15    16   ar
    30    15    37    1
    31    16    17   ar
    32    16    38    1
    33    17    18   ar
    34    17    39    1
    35    18    19   ar
    36    19    20   ar
    37    20    25   ar
    38    20    21   ar
    39    21    22   ar
    40    22    23   ar
    41    22    40    1
    42    23    24   ar
    43    23    41    1
    44    24    25   ar
    45    24    42    1
    46    26    43    1
@<TRIPOS>SUBSTRUCTURE
     1 ZINC001173835973        1 TEMP              0 ****  ****    0 ROOT


##########                                Name:    ZINC000951315041
##########                DOCK_Rotatable_Bonds:                   5
##########                         Heavy_Atoms:                  25
##########                    Molecular_Weight:             340.382
##########                DOCK_Rotatable_Bonds:                   5
##########                       Formal_Charge:          0.00999974
##########                     HBond_Acceptors:                   7
##########                        HBond_Donors:                   1
##########                         Heavy_Atoms:                  25
##########                          Grid_Score:          -23.613672
##########                     Grid_vdw_energy:          -21.419445
##########                      Grid_es_energy:           -2.194227
##########           Internal_energy_repulsive:            9.851764

@<TRIPOS>MOLECULE
ZINC000951315041
 45 47 1 0 0
SMALL
USER_CHARGES


@<TRIPOS>ATOM
      1 C1         -8.0059   -2.5509   59.5966 C.3     1  ZINC000951315041    0.0500
      2 N2         -8.9658   -1.8227   58.7633 N.am    1  ZINC000951315041   -0.4900
      3 C3        -10.0984   -2.4340   58.3693 C.2     1  ZINC000951315041    0.1700
      4 C4        -11.0163   -1.7673   57.5838 C.2     1  ZINC000951315041   -0.2400
      5 C5        -12.2556   -2.4414   57.1547 C.2     1  ZINC000951315041    0.5800
      6 O6        -12.2913   -3.0286   56.0904 O.2     1  ZINC000951315041   -0.5200
      7 N7        -13.3489   -2.4068   57.9421 N.am    1  ZINC000951315041   -0.6000
      8 C8        -14.5910   -3.0736   57.5282 C.3     1  ZINC000951315041    0.1100
      9 C9        -15.7384   -2.0604   57.5886 C.3     1  ZINC000951315041   -0.1300
     10 C10       -15.7934   -1.4409   58.9871 C.3     1  ZINC000951315041   -0.1300
     11 C11       -14.4827   -0.7040   59.2723 C.3     1  ZINC000951315041    0.1300
     12 H12       -14.3272    0.0670   58.5177 H       1  ZINC000951315041    0.1000
     13 N13       -14.5489   -0.0843   60.5981 N.am    1  ZINC000951315041   -0.7200
     14 C14       -15.1551    1.1092   60.7546 C.2     1  ZINC000951315041    0.5700
     15 O15       -15.6456    1.6721   59.7954 O.2     1  ZINC000951315041   -0.5200
     16 C16       -15.2234    1.7338   62.0928 C.ar    1  ZINC000951315041   -0.1900
     17 C17       -14.6160    1.1220   63.1957 C.ar    1  ZINC000951315041   -0.0100
     18 C18       -14.7087    1.7480   64.4265 C.ar    1  ZINC000951315041   -0.1800
     19 C19       -15.3917    2.9465   64.5267 C.ar    1  ZINC000951315041    0.1300
     20 N20       -15.9549    3.5000   63.4696 N.ar    1  ZINC000951315041   -0.4900
     21 C21       -15.8895    2.9463   62.2768 C.ar    1  ZINC000951315041    0.1400
     22 C22       -13.3195   -1.7067   59.2335 C.3     1  ZINC000951315041    0.1000
     23 C23       -10.7592   -0.4308   57.1933 C.2     1  ZINC000951315041    0.0100
     24 C24        -9.6086    0.1663   57.6037 C.2     1  ZINC000951315041   -0.2300
     25 C25        -8.7040   -0.5516   58.4084 C.2     1  ZINC000951315041    0.5100
     26 O26        -7.6707   -0.0203   58.7794 O.2     1  ZINC000951315041   -0.5400
     27 H27        -7.1574   -1.9048   59.8224 H       1  ZINC000951315041    0.1100
     28 H28        -8.4884   -2.8547   60.5256 H       1  ZINC000951315041    0.0800
     29 H29        -7.6576   -3.4345   59.0620 H       1  ZINC000951315041    0.0800
     30 H30       -10.2898   -3.4535   58.6699 H       1  ZINC000951315041    0.1700
     31 H31       -14.4844   -3.4446   56.5089 H       1  ZINC000951315041    0.1000
     32 H32       -14.8014   -3.9046   58.2014 H       1  ZINC000951315041    0.0700
     33 H33       -15.5710   -1.2767   56.8499 H       1  ZINC000951315041    0.0700
     34 H34       -16.6810   -2.5651   57.3770 H       1  ZINC000951315041    0.0900
     35 H35       -16.6244   -0.7376   59.0401 H       1  ZINC000951315041    0.0800
     36 H36       -15.9361   -2.2280   59.7276 H       1  ZINC000951315041    0.0700
     37 H37       -14.1564   -0.5329   61.3633 H       1  ZINC000951315041    0.4000
     38 H38       -14.0890    0.1853   63.0889 H       1  ZINC000951315041    0.1500
     39 H39       -14.2527    1.3051   65.2996 H       1  ZINC000951315041    0.1500
     40 H40       -15.4655    3.4371   65.4860 H       1  ZINC000951315041    0.1600
     41 H41       -16.3631    3.4301   61.4352 H       1  ZINC000951315041    0.1600
     42 H42       -13.4281   -2.4242   60.0468 H       1  ZINC000951315041    0.0700
     43 H43       -12.3742   -1.1739   59.3374 H       1  ZINC000951315041    0.0900
     44 H44       -11.4662    0.1062   56.5783 H       1  ZINC000951315041    0.1400
     45 H45        -9.3920    1.1849   57.3172 H       1  ZINC000951315041    0.1600
@<TRIPOS>BOND
     1     1     2    1
     2     1    27    1
     3     1    28    1
     4     1    29    1
     5     2    25   am
     6     2     3    1
     7     3     4    2
     8     3    30    1
     9     4     5    1
    10     4    23    1
    11     5     6    2
    12     5     7   am
    13     7    22    1
    14     7     8    1
    15     8     9    1
    16     8    31    1
    17     8    32    1
    18     9    10    1
    19     9    33    1
    20     9    34    1
    21    10    11    1
    22    10    35    1
    23    10    36    1
    24    11    12    1
    25    11    13    1
    26    11    22    1
    27    13    14   am
    28    13    37    1
    29    14    15    2
    30    14    16    1
    31    16    21   ar
    32    16    17   ar
    33    17    18   ar
    34    17    38    1
    35    18    19   ar
    36    18    39    1
    37    19    20   ar
    38    19    40    1
    39    20    21   ar
    40    21    41    1
    41    22    42    1
    42    22    43    1
    43    23    24    2
    44    23    44    1
    45    24    25    1
    46    24    45    1
    47    25    26    2
@<TRIPOS>SUBSTRUCTURE
     1 ZINC000951315041        1 TEMP              0 ****  ****    0 ROOT


##########                                Name:    ZINC000558052810
##########                DOCK_Rotatable_Bonds:                   9
##########                         Heavy_Atoms:                  30
##########                    Molecular_Weight:             424.524
##########                DOCK_Rotatable_Bonds:                   9
##########                       Formal_Charge:          -0.0200002
##########                     HBond_Acceptors:                   8
##########                        HBond_Donors:                   1
##########                         Heavy_Atoms:                  30
##########                          Grid_Score:          -23.491982
##########                     Grid_vdw_energy:          -24.043142
##########                      Grid_es_energy:            0.551161
##########           Internal_energy_repulsive:           19.844475

@<TRIPOS>MOLECULE
ZINC000558052810
 54 56 1 0 0
SMALL
USER_CHARGES


@<TRIPOS>ATOM
      1 C1        -14.0895   -0.5438   61.2748 C.3     1  ZINC000558052810   -0.1700
      2 C2        -12.6078   -0.3388   60.9531 C.3     1  ZINC000558052810    0.1100
      3 N3        -12.1011    0.8153   61.6999 N.am    1  ZINC000558052810   -0.6100
      4 C4        -12.8107    1.2850   62.8924 C.3     1  ZINC000558052810    0.0700
      5 C5        -10.9822    1.4447   61.2899 C.2     1  ZINC000558052810    0.5600
      6 O6        -10.5618    2.4024   61.9094 O.2     1  ZINC000558052810   -0.5300
      7 C7        -10.2660    0.9705   60.0863 C.ar    1  ZINC000558052810   -0.1100
      8 C8         -9.0512    0.2954   60.2149 C.ar    1  ZINC000558052810   -0.1100
      9 C9         -8.3845   -0.1462   59.0899 C.ar    1  ZINC000558052810   -0.1000
     10 C10        -8.9156    0.0780   57.8337 C.ar    1  ZINC000558052810   -0.1300
     11 C11       -10.1246    0.7498   57.6949 C.ar    1  ZINC000558052810    0.1400
     12 N12       -10.6575    0.9747   56.4213 N.am    1  ZINC000558052810   -0.6600
     13 C13       -10.8849   -0.0638   55.5928 C.2     1  ZINC000558052810    0.5600
     14 O14       -10.6266   -1.1965   55.9527 O.2     1  ZINC000558052810   -0.4800
     15 C15       -11.4463    0.1731   54.2512 C.ar    1  ZINC000558052810   -0.1900
     16 C16       -12.8199    0.0381   54.0194 C.ar    1  ZINC000558052810   -0.0200
     17 C17       -13.2971    0.2716   52.7417 C.ar    1  ZINC000558052810   -0.1900
     18 C18       -12.4137    0.6283   51.7384 C.ar    1  ZINC000558052810    0.1500
     19 N19       -11.1225    0.7502   51.9758 N.ar    1  ZINC000558052810   -0.4900
     20 C20       -10.6125    0.5446   53.1812 C.ar    1  ZINC000558052810    0.1600
     21 S21        -8.8788    0.7216   53.4414 S.3     1  ZINC000558052810    0.0600
     22 C22        -8.5821    2.2646   52.5431 C.3     1  ZINC000558052810   -0.0700
     23 C23        -7.0983    2.5024   52.4293 C.2     1  ZINC000558052810   -0.2000
     24 C24        -6.2968    2.2751   51.3613 C.2     1  ZINC000558052810   -0.0100
     25 C25        -6.7127    1.7229   50.0223 C.3     1  ZINC000558052810   -0.0800
     26 O26        -5.0604    2.6382   51.7307 O.3     1  ZINC000558052810    0.1000
     27 N27        -5.0382    3.0454   52.8691 N.2     1  ZINC000558052810   -0.3600
     28 C28        -6.2218    3.0203   53.4102 C.2     1  ZINC000558052810    0.0300
     29 C29        -6.5843    3.4490   54.8088 C.3     1  ZINC000558052810   -0.0800
     30 C30       -10.8051    1.1913   58.8189 C.ar    1  ZINC000558052810   -0.0700
     31 H31       -14.2080   -0.7222   62.3435 H       1  ZINC000558052810    0.0600
     32 H32       -14.6496    0.3470   60.9907 H       1  ZINC000558052810    0.0600
     33 H33       -14.4664   -1.4025   60.7192 H       1  ZINC000558052810    0.0700
     34 H34       -12.0477   -1.2297   61.2372 H       1  ZINC000558052810    0.0800
     35 H35       -12.4893   -0.1605   59.8843 H       1  ZINC000558052810    0.0800
     36 H36       -12.4796    0.7149   63.7604 H       1  ZINC000558052810    0.0600
     37 H37       -12.5975    2.3423   63.0492 H       1  ZINC000558052810    0.0800
     38 H38       -13.8832    1.1472   62.7549 H       1  ZINC000558052810    0.0700
     39 H39        -8.6325    0.1189   61.1947 H       1  ZINC000558052810    0.1400
     40 H40        -7.4446   -0.6683   59.1915 H       1  ZINC000558052810    0.1400
     41 H41        -8.3891   -0.2695   56.9571 H       1  ZINC000558052810    0.1300
     42 H42       -10.8634    1.8781   56.1343 H       1  ZINC000558052810    0.4100
     43 H43       -13.4908   -0.2418   54.8181 H       1  ZINC000558052810    0.1400
     44 H44       -14.3516    0.1757   52.5291 H       1  ZINC000558052810    0.1500
     45 H45       -12.7887    0.8099   50.7421 H       1  ZINC000558052810    0.1700
     46 H46        -9.0162    2.1937   51.5458 H       1  ZINC000558052810    0.1000
     47 H47        -9.0425    3.0930   53.0817 H       1  ZINC000558052810    0.1000
     48 H48        -6.9923    2.5437   49.3618 H       1  ZINC000558052810    0.0900
     49 H49        -5.8822    1.1701   49.5834 H       1  ZINC000558052810    0.0900
     50 H50        -7.5646    1.0555   50.1532 H       1  ZINC000558052810    0.0900
     51 H51        -6.8461    4.5072   54.8081 H       1  ZINC000558052810    0.0800
     52 H52        -7.4350    2.8645   55.1590 H       1  ZINC000558052810    0.0800
     53 H53        -5.7340    3.2856   55.4709 H       1  ZINC000558052810    0.0800
     54 H54       -11.7448    1.7132   58.7132 H       1  ZINC000558052810    0.1500
@<TRIPOS>BOND
     1     1     2    1
     2     1    31    1
     3     1    32    1
     4     1    33    1
     5     2     3    1
     6     2    34    1
     7     2    35    1
     8     3     4    1
     9     3     5   am
    10     4    36    1
    11     4    37    1
    12     4    38    1
    13     5     6    2
    14     5     7    1
    15     7    30   ar
    16     7     8   ar
    17     8     9   ar
    18     8    39    1
    19     9    10   ar
    20     9    40    1
    21    10    11   ar
    22    10    41    1
    23    11    12    1
    24    11    30   ar
    25    12    13   am
    26    12    42    1
    27    13    14    2
    28    13    15    1
    29    15    20   ar
    30    15    16   ar
    31    16    17   ar
    32    16    43    1
    33    17    18   ar
    34    17    44    1
    35    18    19   ar
    36    18    45    1
    37    19    20   ar
    38    20    21    1
    39    21    22    1
    40    22    23    1
    41    22    46    1
    42    22    47    1
    43    23    28    1
    44    23    24    2
    45    24    25    1
    46    24    26    1
    47    25    48    1
    48    25    49    1
    49    25    50    1
    50    26    27    1
    51    27    28    2
    52    28    29    1
    53    29    51    1
    54    29    52    1
    55    29    53    1
    56    30    54    1
@<TRIPOS>SUBSTRUCTURE
     1 ZINC000558052810        1 TEMP              0 ****  ****    0 ROOT


##########                                Name:    ZINC000431691749
##########                DOCK_Rotatable_Bonds:                   4
##########                         Heavy_Atoms:                  24
##########                    Molecular_Weight:             328.454
##########                DOCK_Rotatable_Bonds:                   4
##########                       Formal_Charge:         -0.00999957
##########                     HBond_Acceptors:                   4
##########                        HBond_Donors:                   0
##########                         Heavy_Atoms:                  24
##########                          Grid_Score:          -23.164669
##########                     Grid_vdw_energy:          -22.689137
##########                      Grid_es_energy:           -0.475533
##########           Internal_energy_repulsive:          132.534637

@<TRIPOS>MOLECULE
ZINC000431691749
 52 54 1 0 0
SMALL
USER_CHARGES


@<TRIPOS>ATOM
      1 C1        -15.3426   -3.4519   57.5786 C.3     1  ZINC000431691749   -0.1200
      2 C2        -14.5393   -2.6744   58.5891 C.ar    1  ZINC000431691749   -0.0800
      3 C3        -14.9901   -2.5609   59.8907 C.ar    1  ZINC000431691749   -0.1200
      4 C4        -14.2532   -1.8476   60.8178 C.ar    1  ZINC000431691749   -0.1100
      5 C5        -13.0653   -1.2484   60.4432 C.ar    1  ZINC000431691749   -0.1100
      6 C6        -12.6139   -1.3626   59.1414 C.ar    1  ZINC000431691749   -0.0800
      7 C7        -11.3189   -0.7089   58.7328 C.3     1  ZINC000431691749    0.2000
      8 H8        -11.5135    0.0254   57.9512 H       1  ZINC000431691749    0.1100
      9 N9        -10.7218   -0.0416   59.8922 N.am    1  ZINC000431691749   -0.5700
     10 C10       -10.4344   -0.6581   61.0556 C.2     1  ZINC000431691749    0.5200
     11 O11       -10.6144   -1.8252   61.3298 O.2     1  ZINC000431691749   -0.4400
     12 C12        -9.8383    0.4110   61.9497 C.3     1  ZINC000431691749    0.0900
     13 H13       -10.4515    0.5524   62.8396 H       1  ZINC000431691749    0.1300
     14 C14        -8.4034    0.0490   62.3385 C.3     1  ZINC000431691749   -0.1500
     15 N15        -9.8612    1.6192   61.1071 N.am    1  ZINC000431691749   -0.6000
     16 C16        -9.3945    2.9565   61.4815 C.3     1  ZINC000431691749    0.1500
     17 C17       -10.4620    4.0507   61.3144 C.3     1  ZINC000431691749   -0.1600
     18 C18       -10.8942    3.7394   62.7569 C.3     1  ZINC000431691749   -0.1400
     19 C19        -9.4621    3.2316   62.9930 C.3     1  ZINC000431691749   -0.1500
     20 C20       -10.3890    1.2539   59.9249 C.2     1  ZINC000431691749    0.7000
     21 O21       -10.5522    2.0170   58.9931 O.2     1  ZINC000431691749   -0.5300
     22 C22       -10.3550   -1.7730   58.2042 C.3     1  ZINC000431691749   -0.0700
     23 C23       -10.7462   -3.1406   58.7678 C.3     1  ZINC000431691749   -0.1400
     24 C24       -10.4260   -1.8117   56.6764 C.3     1  ZINC000431691749   -0.1400
     25 C25        -8.9288   -1.4308   58.6400 C.3     1  ZINC000431691749   -0.1600
     26 C26       -13.3485   -2.0793   58.2157 C.ar    1  ZINC000431691749   -0.1100
     27 H27       -15.0284   -4.4955   57.5900 H       1  ZINC000431691749    0.0700
     28 H28       -16.4014   -3.3883   57.8296 H       1  ZINC000431691749    0.0700
     29 H29       -15.1789   -3.0341   56.5852 H       1  ZINC000431691749    0.0700
     30 H30       -15.9183   -3.0291   60.1835 H       1  ZINC000431691749    0.1200
     31 H31       -14.6058   -1.7583   61.8348 H       1  ZINC000431691749    0.1200
     32 H32       -12.4899   -0.6906   61.1672 H       1  ZINC000431691749    0.1100
     33 H33        -7.8004   -0.0641   61.4376 H       1  ZINC000431691749    0.0700
     34 H34        -7.9843    0.8412   62.9590 H       1  ZINC000431691749    0.0800
     35 H35        -8.4034   -0.8876   62.8960 H       1  ZINC000431691749    0.0800
     36 H36        -8.4334    3.2101   61.0340 H       1  ZINC000431691749    0.1000
     37 H37       -10.0464    5.0506   61.1891 H       1  ZINC000431691749    0.0900
     38 H38       -11.2207    3.8102   60.5696 H       1  ZINC000431691749    0.0700
     39 H39       -11.1445    4.6264   63.3388 H       1  ZINC000431691749    0.0700
     40 H40       -11.6515    2.9586   62.8270 H       1  ZINC000431691749    0.0800
     41 H41        -9.4135    2.3300   63.6036 H       1  ZINC000431691749    0.1000
     42 H42        -8.7731    4.0076   63.3268 H       1  ZINC000431691749    0.0900
     43 H43       -11.7622   -3.3844   58.4573 H       1  ZINC000431691749    0.0600
     44 H44       -10.0595   -3.8987   58.3911 H       1  ZINC000431691749    0.0600
     45 H45       -10.6956   -3.1131   59.8563 H       1  ZINC000431691749    0.0600
     46 H46       -10.1474   -0.8374   56.2749 H       1  ZINC000431691749    0.0500
     47 H47        -9.7394   -2.5698   56.2998 H       1  ZINC000431691749    0.0600
     48 H48       -11.4421   -2.0555   56.3660 H       1  ZINC000431691749    0.0500
     49 H49        -8.9613   -0.8170   59.5401 H       1  ZINC000431691749    0.0700
     50 H50        -8.3817   -2.3505   58.8469 H       1  ZINC000431691749    0.0400
     51 H51        -8.4275   -0.8812   57.8433 H       1  ZINC000431691749    0.1000
     52 H52       -12.9958   -2.1687   57.1988 H       1  ZINC000431691749    0.1300
@<TRIPOS>BOND
     1     1     2    1
     2     1    27    1
     3     1    28    1
     4     1    29    1
     5     2    26   ar
     6     2     3   ar
     7     3     4   ar
     8     3    30    1
     9     4     5   ar
    10     4    31    1
    11     5     6   ar
    12     5    32    1
    13     6     7    1
    14     6    26   ar
    15     7     8    1
    16     7     9    1
    17     7    22    1
    18     9    20   am
    19     9    10   am
    20    10    11    2
    21    10    12    1
    22    12    13    1
    23    12    14    1
    24    12    15    1
    25    14    33    1
    26    14    34    1
    27    14    35    1
    28    15    16    1
    29    15    20   am
    30    16    19    1
    31    16    17    1
    32    16    36    1
    33    17    18    1
    34    17    37    1
    35    17    38    1
    36    18    19    1
    37    18    39    1
    38    18    40    1
    39    19    41    1
    40    19    42    1
    41    20    21    2
    42    22    23    1
    43    22    24    1
    44    22    25    1
    45    23    43    1
    46    23    44    1
    47    23    45    1
    48    24    46    1
    49    24    47    1
    50    24    48    1
    51    25    49    1
    52    25    50    1
    53    25    51    1
    54    26    52    1
@<TRIPOS>SUBSTRUCTURE
     1 ZINC000431691749        1 TEMP              0 ****  ****    0 ROOT


##########                                Name:    ZINC000931749147
##########                DOCK_Rotatable_Bonds:                   5
##########                         Heavy_Atoms:                  25
##########                    Molecular_Weight:             354.397
##########                DOCK_Rotatable_Bonds:                   5
##########                       Formal_Charge:        -4.76837e-07
##########                     HBond_Acceptors:                   7
##########                        HBond_Donors:                   1
##########                         Heavy_Atoms:                  25
##########                          Grid_Score:          -22.803991
##########                     Grid_vdw_energy:          -20.795975
##########                      Grid_es_energy:           -2.008016
##########           Internal_energy_repulsive:          157.157150

@<TRIPOS>MOLECULE
ZINC000931749147
 49 51 1 0 0
SMALL
USER_CHARGES


@<TRIPOS>ATOM
      1 C1        -13.8751    1.6789   59.6351 C.3     1  ZINC000931749147   -0.1100
      2 C2        -14.1261    1.5904   61.1185 C.ar    1  ZINC000931749147   -0.1300
      3 C3        -13.1154    1.1657   61.9699 C.ar    1  ZINC000931749147    0.1800
      4 N4        -11.8614    0.8194   61.4514 N.am    1  ZINC000931749147   -0.6800
      5 C5        -10.7911    1.6005   61.6979 C.2     1  ZINC000931749147    0.7100
      6 O6        -10.9143    2.6060   62.3705 O.2     1  ZINC000931749147   -0.5500
      7 N7         -9.5843    1.2672   61.1989 N.am    1  ZINC000931749147   -0.6200
      8 C8         -8.4015    2.1043   61.4546 C.3     1  ZINC000931749147    0.0700
      9 C9         -7.7126    2.3899   60.1152 C.3     1  ZINC000931749147    0.0500
     10 O10        -7.4812    1.1555   59.4323 O.3     1  ZINC000931749147   -0.3700
     11 C11        -8.6727    0.4405   59.0957 C.3     1  ZINC000931749147    0.0500
     12 C12        -9.4094    0.0521   60.3875 C.3     1  ZINC000931749147    0.1300
     13 H13        -8.8221   -0.6825   60.9385 H       1  ZINC000931749147    0.0900
     14 C14       -10.7787   -0.5370   60.0425 C.3     1  ZINC000931749147   -0.1100
     15 C15       -10.6139   -1.6180   58.9723 C.3     1  ZINC000931749147   -0.1000
     16 C16        -9.7279   -2.7442   59.5138 C.3     1  ZINC000931749147   -0.1500
     17 C17        -9.6331   -3.8567   58.4664 C.3     1  ZINC000931749147    0.0600
     18 O18       -10.9458   -4.3254   58.1510 O.3     1  ZINC000931749147   -0.3800
     19 C19       -11.8044   -3.3266   57.5965 C.3     1  ZINC000931749147    0.0600
     20 C20       -11.9864   -2.1928   58.6090 C.3     1  ZINC000931749147   -0.1500
     21 C21       -13.3490    1.0850   63.3363 C.ar    1  ZINC000931749147   -0.1200
     22 C22       -14.5859    1.4272   63.8470 C.ar    1  ZINC000931749147   -0.1100
     23 C23       -15.5938    1.8508   62.9979 C.ar    1  ZINC000931749147    0.0500
     24 F24       -16.8028    2.1851   63.4996 F       1  ZINC000931749147   -0.1300
     25 C25       -15.3619    1.9380   61.6335 C.ar    1  ZINC000931749147    0.0900
     26 F26       -16.3466    2.3515   60.8061 F       1  ZINC000931749147   -0.1200
     27 H27       -13.4953    2.6704   59.3893 H       1  ZINC000931749147    0.0800
     28 H28       -13.1416    0.9265   59.3453 H       1  ZINC000931749147    0.0700
     29 H29       -14.8072    1.5033   59.0979 H       1  ZINC000931749147    0.0800
     30 H30       -11.7631    0.0173   60.9148 H       1  ZINC000931749147    0.4100
     31 H31        -8.7086    3.0424   61.9168 H       1  ZINC000931749147    0.0800
     32 H32        -7.7141    1.5764   62.1157 H       1  ZINC000931749147    0.0900
     33 H33        -8.3520    3.0288   59.5060 H       1  ZINC000931749147    0.0600
     34 H34        -6.7613    2.8907   60.2946 H       1  ZINC000931749147    0.1100
     35 H35        -9.3154    1.0723   58.4827 H       1  ZINC000931749147    0.0600
     36 H36        -8.4119   -0.4612   58.5416 H       1  ZINC000931749147    0.1100
     37 H37       -11.2213   -0.9756   60.9368 H       1  ZINC000931749147    0.1100
     38 H38       -11.4290    0.2520   59.6648 H       1  ZINC000931749147    0.0700
     39 H39       -10.1533   -1.1848   58.0844 H       1  ZINC000931749147    0.0700
     40 H40        -8.7316   -2.3552   59.7231 H       1  ZINC000931749147    0.0700
     41 H41       -10.1643   -3.1425   60.4298 H       1  ZINC000931749147    0.0700
     42 H42        -9.1597   -3.4678   57.5648 H       1  ZINC000931749147    0.0500
     43 H43        -9.0388   -4.6798   58.8631 H       1  ZINC000931749147    0.0900
     44 H44       -11.3593   -2.9308   56.6836 H       1  ZINC000931749147    0.0500
     45 H45       -12.7742   -3.7679   57.3666 H       1  ZINC000931749147    0.0900
     46 H46       -12.4684   -2.5800   59.5067 H       1  ZINC000931749147    0.0700
     47 H47       -12.6052   -1.4095   58.1713 H       1  ZINC000931749147    0.0700
     48 H48       -12.5636    0.7544   63.9998 H       1  ZINC000931749147    0.1800
     49 H49       -14.7671    1.3641   64.9098 H       1  ZINC000931749147    0.1500
@<TRIPOS>BOND
     1     1     2    1
     2     1    27    1
     3     1    28    1
     4     1    29    1
     5     2    25   ar
     6     2     3   ar
     7     3     4    1
     8     3    21   ar
     9     4     5   am
    10     4    30    1
    11     5     6    2
    12     5     7   am
    13     7    12    1
    14     7     8    1
    15     8     9    1
    16     8    31    1
    17     8    32    1
    18     9    10    1
    19     9    33    1
    20     9    34    1
    21    10    11    1
    22    11    12    1
    23    11    35    1
    24    11    36    1
    25    12    13    1
    26    12    14    1
    27    14    15    1
    28    14    37    1
    29    14    38    1
    30    15    20    1
    31    15    16    1
    32    15    39    1
    33    16    17    1
    34    16    40    1
    35    16    41    1
    36    17    18    1
    37    17    42    1
    38    17    43    1
    39    18    19    1
    40    19    20    1
    41    19    44    1
    42    19    45    1
    43    20    46    1
    44    20    47    1
    45    21    22   ar
    46    21    48    1
    47    22    23   ar
    48    22    49    1
    49    23    24    1
    50    23    25   ar
    51    25    26    1
@<TRIPOS>SUBSTRUCTURE
     1 ZINC000931749147        1 TEMP              0 ****  ****    0 ROOT


##########                                Name:    ZINC000648570180
##########                DOCK_Rotatable_Bonds:                   4
##########                         Heavy_Atoms:                  25
##########                    Molecular_Weight:             342.484
##########                DOCK_Rotatable_Bonds:                   4
##########                       Formal_Charge:          0.00999971
##########                     HBond_Acceptors:                   5
##########                        HBond_Donors:                   0
##########                         Heavy_Atoms:                  25
##########                          Grid_Score:          -22.737213
##########                     Grid_vdw_energy:          -21.686861
##########                      Grid_es_energy:           -1.050353
##########           Internal_energy_repulsive:           85.490532

@<TRIPOS>MOLECULE
ZINC000648570180
 55 58 1 0 0
SMALL
USER_CHARGES


@<TRIPOS>ATOM
      1 C1         -8.9632    3.3666   52.6755 C.3     1  ZINC000648570180   -0.1500
      2 C2         -8.5506    2.1204   53.4615 C.3     1  ZINC000648570180   -0.0600
      3 C3         -9.1300    2.1781   54.8764 C.3     1  ZINC000648570180   -0.1400
      4 C4         -9.0458    0.8512   52.7378 C.3     1  ZINC000648570180   -0.1200
      5 C5         -7.9078   -0.1772   52.9533 C.3     1  ZINC000648570180   -0.1300
      6 C6         -6.6327    0.6943   52.8359 C.3     1  ZINC000648570180   -0.1200
      7 C7         -7.0164    2.0206   53.5238 C.3     1  ZINC000648570180   -0.0700
      8 H8         -6.6846    2.0124   54.5621 H       1  ZINC000648570180    0.0800
      9 C9         -6.3828    3.1987   52.7811 C.3     1  ZINC000648570180   -0.1000
     10 H10        -6.9243    3.4137   51.8598 H       1  ZINC000648570180    0.1000
     11 C11        -6.3100    4.4546   53.6893 C.3     1  ZINC000648570180   -0.1400
     12 C12        -5.1158    5.2365   53.1029 C.3     1  ZINC000648570180    0.1200
     13 N13        -4.2807    4.2733   52.3705 N.am    1  ZINC000648570180   -0.6000
     14 C14        -3.1506    4.5662   51.6970 C.2     1  ZINC000648570180    0.5800
     15 O15        -2.7434    5.7101   51.6622 O.2     1  ZINC000648570180   -0.5200
     16 C16        -2.4033    3.4906   50.9976 C.ar    1  ZINC000648570180    0.1600
     17 C17        -3.0458    2.6692   50.0717 C.ar    1  ZINC000648570180   -0.2000
     18 C18        -2.3055    1.6774   49.4427 C.ar    1  ZINC000648570180    0.1800
     19 N19        -1.0249    1.5428   49.7378 N.ar    1  ZINC000648570180   -0.5400
     20 C20        -0.4415    2.3392   50.6228 C.ar    1  ZINC000648570180    0.4800
     21 N21         0.9027    2.1646   50.9036 N.3     1  ZINC000648570180   -0.4400
     22 C22         1.6333    3.4560   50.8334 C.3     1  ZINC000648570180    0.0500
     23 C23         2.9168    3.1824   51.6572 C.3     1  ZINC000648570180   -0.1200
     24 C24         2.4045    2.2857   52.8076 C.3     1  ZINC000648570180   -0.1300
     25 C25         1.0958    1.6666   52.2828 C.3     1  ZINC000648570180    0.0400
     26 N26        -1.1091    3.2995   51.2407 N.ar    1  ZINC000648570180   -0.5000
     27 C27        -4.8838    2.9333   52.4949 C.3     1  ZINC000648570180    0.1100
     28 H28        -8.4578    3.3710   51.7097 H       1  ZINC000648570180    0.0600
     29 H29       -10.0421    3.3579   52.5209 H       1  ZINC000648570180    0.0500
     30 H30        -8.6836    4.2588   53.2359 H       1  ZINC000648570180    0.0700
     31 H31       -10.2171    2.2363   54.8217 H       1  ZINC000648570180    0.0500
     32 H32        -8.8412    1.2809   55.4240 H       1  ZINC000648570180    0.0500
     33 H33        -8.7445    3.0579   55.3913 H       1  ZINC000648570180    0.0500
     34 H34        -9.9729    0.4939   53.1859 H       1  ZINC000648570180    0.0600
     35 H35        -9.1857    1.0482   51.6749 H       1  ZINC000648570180    0.0700
     36 H36        -7.9774   -0.6286   53.9430 H       1  ZINC000648570180    0.0700
     37 H37        -7.9260   -0.9418   52.1766 H       1  ZINC000648570180    0.0700
     38 H38        -5.7989    0.2223   53.3555 H       1  ZINC000648570180    0.0700
     39 H39        -6.3830    0.8658   51.7889 H       1  ZINC000648570180    0.0700
     40 H40        -7.2274    5.0384   53.6145 H       1  ZINC000648570180    0.0900
     41 H41        -6.1151    4.1715   54.7237 H       1  ZINC000648570180    0.0800
     42 H42        -5.4761    6.0076   52.4219 H       1  ZINC000648570180    0.0800
     43 H43        -4.5385    5.6905   53.9082 H       1  ZINC000648570180    0.0700
     44 H44        -4.0944    2.8012   49.8495 H       1  ZINC000648570180    0.1600
     45 H45        -2.7713    1.0233   48.7205 H       1  ZINC000648570180    0.1800
     46 H46         1.8836    3.7007   49.8011 H       1  ZINC000648570180    0.1000
     47 H47         1.0473    4.2547   51.2880 H       1  ZINC000648570180    0.0500
     48 H48         3.6558    2.6535   51.0555 H       1  ZINC000648570180    0.0800
     49 H49         3.3298    4.1124   52.0477 H       1  ZINC000648570180    0.0800
     50 H50         3.1305    1.5036   53.0296 H       1  ZINC000648570180    0.0800
     51 H51         2.2095    2.8854   53.6966 H       1  ZINC000648570180    0.0700
     52 H52         0.2603    1.9774   52.9101 H       1  ZINC000648570180    0.0900
     53 H53         1.1752    0.5796   52.2773 H       1  ZINC000648570180    0.0900
     54 H54        -4.4307    2.3889   53.3235 H       1  ZINC000648570180    0.0700
     55 H55        -4.7666    2.3767   51.5652 H       1  ZINC000648570180    0.0800
@<TRIPOS>BOND
     1     1     2    1
     2     1    28    1
     3     1    29    1
     4     1    30    1
     5     2     7    1
     6     2     3    1
     7     2     4    1
     8     3    31    1
     9     3    32    1
    10     3    33    1
    11     4     5    1
    12     4    34    1
    13     4    35    1
    14     5     6    1
    15     5    36    1
    16     5    37    1
    17     6     7    1
    18     6    38    1
    19     6    39    1
    20     7     8    1
    21     7     9    1
    22     9    10    1
    23     9    27    1
    24     9    11    1
    25    11    12    1
    26    11    40    1
    27    11    41    1
    28    12    13    1
    29    12    42    1
    30    12    43    1
    31    13    14   am
    32    13    27    1
    33    14    15    2
    34    14    16    1
    35    16    26   ar
    36    16    17   ar
    37    17    18   ar
    38    17    44    1
    39    18    19   ar
    40    18    45    1
    41    19    20   ar
    42    20    21    1
    43    20    26   ar
    44    21    25    1
    45    21    22    1
    46    22    23    1
    47    22    46    1
    48    22    47    1
    49    23    24    1
    50    23    48    1
    51    23    49    1
    52    24    25    1
    53    24    50    1
    54    24    51    1
    55    25    52    1
    56    25    53    1
    57    27    54    1
    58    27    55    1
@<TRIPOS>SUBSTRUCTURE
     1 ZINC000648570180        1 TEMP              0 ****  ****    0 ROOT


##########                                Name:    ZINC000794876634
##########                DOCK_Rotatable_Bonds:                   4
##########                         Heavy_Atoms:                  24
##########                    Molecular_Weight:             389.249
##########                DOCK_Rotatable_Bonds:                   4
##########                       Formal_Charge:        -4.47035e-08
##########                     HBond_Acceptors:                   5
##########                        HBond_Donors:                   0
##########                         Heavy_Atoms:                  24
##########                          Grid_Score:          -22.671635
##########                     Grid_vdw_energy:          -23.660860
##########                      Grid_es_energy:            0.989225
##########           Internal_energy_repulsive:           52.449741

@<TRIPOS>MOLECULE
ZINC000794876634
 41 43 1 0 0
SMALL
USER_CHARGES


@<TRIPOS>ATOM
      1 C1        -10.1962    3.0836   65.1284 C.3     1  ZINC000794876634    0.0200
      2 O2         -9.5087    1.8997   64.7189 O.3     1  ZINC000794876634   -0.3000
      3 C3         -9.3331    1.7191   63.3845 C.ar    1  ZINC000794876634    0.1300
      4 C4        -10.0080    2.5304   62.4817 C.ar    1  ZINC000794876634   -0.1800
      5 C5         -9.8349    2.3523   61.1271 C.ar    1  ZINC000794876634   -0.0400
      6 C6        -10.5691    3.2349   60.1508 C.3     1  ZINC000794876634   -0.1200
      7 C7         -8.9755    1.3504   60.6572 C.ar    1  ZINC000794876634   -0.1000
      8 C8         -8.7886    1.1583   59.2162 C.2     1  ZINC000794876634    0.0600
      9 C9         -9.3418    0.0764   58.5945 C.2     1  ZINC000794876634   -0.1700
     10 C10       -10.1509   -0.9929   59.2042 C.2     1  ZINC000794876634    0.5700
     11 O11       -10.4571   -1.0775   60.3795 O.2     1  ZINC000794876634   -0.4900
     12 N12       -10.4920   -1.8581   58.2345 N.am    1  ZINC000794876634   -0.5300
     13 C13       -11.3016   -3.0599   58.4501 C.3     1  ZINC000794876634    0.0800
     14 C14        -9.9830   -1.4717   57.0043 C.ar    1  ZINC000794876634    0.3700
     15 N15       -10.0764   -2.0253   55.8016 N.ar    1  ZINC000794876634   -0.4900
     16 C16        -9.5080   -1.4878   54.7413 C.ar    1  ZINC000794876634    0.1800
     17 C17        -8.7814   -0.3135   54.8270 C.ar    1  ZINC000794876634   -0.1800
     18 Br18       -7.9789    0.4313   53.2852 Br      1  ZINC000794876634   -0.0200
     19 C19        -8.6497    0.3105   56.0591 C.ar    1  ZINC000794876634    0.0000
     20 C20        -9.2656   -0.2761   57.1597 C.ar    1  ZINC000794876634   -0.1400
     21 C21        -8.2947    0.5325   61.5700 C.ar    1  ZINC000794876634   -0.1400
     22 C22        -8.4711    0.7226   62.9252 C.ar    1  ZINC000794876634    0.0900
     23 O23        -7.8120   -0.0684   63.8138 O.3     1  ZINC000794876634   -0.3000
     24 C24        -8.1967    0.0370   65.1860 C.3     1  ZINC000794876634    0.0200
     25 H25       -10.2682    3.1043   66.2158 H       1  ZINC000794876634    0.1000
     26 H26        -9.6473    3.9601   64.7838 H       1  ZINC000794876634    0.0600
     27 H27       -11.1976    3.0896   64.6978 H       1  ZINC000794876634    0.0600
     28 H28       -10.6706    3.3029   62.8429 H       1  ZINC000794876634    0.1400
     29 H29        -9.9629    4.1130   59.9280 H       1  ZINC000794876634    0.0800
     30 H30       -10.7580    2.6809   59.2313 H       1  ZINC000794876634    0.0700
     31 H31       -11.5173    3.5491   60.5870 H       1  ZINC000794876634    0.0700
     32 H32        -8.2131    1.8727   58.6463 H       1  ZINC000794876634    0.1500
     33 H33       -11.5728   -3.1310   59.5035 H       1  ZINC000794876634    0.0900
     34 H34       -12.2065   -3.0018   57.8452 H       1  ZINC000794876634    0.0800
     35 H35       -10.7280   -3.9409   58.1622 H       1  ZINC000794876634    0.0800
     36 H36        -9.6114   -1.9753   53.7832 H       1  ZINC000794876634    0.1800
     37 H37        -8.0887    1.2278   56.1600 H       1  ZINC000794876634    0.1600
     38 H38        -7.6311   -0.2413   61.2135 H       1  ZINC000794876634    0.1400
     39 H39        -7.9605    1.0356   65.5537 H       1  ZINC000794876634    0.0500
     40 H40        -9.2682   -0.1400   65.2776 H       1  ZINC000794876634    0.0600
     41 H41        -7.6545   -0.7041   65.7733 H       1  ZINC000794876634    0.1100
@<TRIPOS>BOND
     1     1     2    1
     2     1    25    1
     3     1    26    1
     4     1    27    1
     5     2     3    1
     6     3    22   ar
     7     3     4   ar
     8     4     5   ar
     9     4    28    1
    10     5     6    1
    11     5     7   ar
    12     6    29    1
    13     6    30    1
    14     6    31    1
    15     7     8    1
    16     7    21   ar
    17     8     9    2
    18     8    32    1
    19     9    20    1
    20     9    10    1
    21    10    11    2
    22    10    12   am
    23    12    13    1
    24    12    14    1
    25    13    33    1
    26    13    34    1
    27    13    35    1
    28    14    20   ar
    29    14    15   ar
    30    15    16   ar
    31    16    17   ar
    32    16    36    1
    33    17    18    1
    34    17    19   ar
    35    19    20   ar
    36    19    37    1
    37    21    22   ar
    38    21    38    1
    39    22    23    1
    40    23    24    1
    41    24    39    1
    42    24    40    1
    43    24    41    1
@<TRIPOS>SUBSTRUCTURE
     1 ZINC000794876634        1 TEMP              0 ****  ****    0 ROOT


##########                                Name:    ZINC000550782577
##########                DOCK_Rotatable_Bonds:                   5
##########                         Heavy_Atoms:                  25
##########                    Molecular_Weight:              338.45
##########                DOCK_Rotatable_Bonds:                   5
##########                       Formal_Charge:         -0.00999954
##########                     HBond_Acceptors:                   4
##########                        HBond_Donors:                   0
##########                         Heavy_Atoms:                  25
##########                          Grid_Score:          -22.463943
##########                     Grid_vdw_energy:          -21.622004
##########                      Grid_es_energy:           -0.841939
##########           Internal_energy_repulsive:          155.531754

@<TRIPOS>MOLECULE
ZINC000550782577
 51 53 1 0 0
SMALL
USER_CHARGES


@<TRIPOS>ATOM
      1 C1         -8.5800   -0.1479   60.5700 C.3     1  ZINC000550782577    0.0700
      2 N2         -9.7238    0.2813   59.7615 N.am    1  ZINC000550782577   -0.5900
      3 C3         -9.6533    1.4210   59.0456 C.2     1  ZINC000550782577    0.5800
      4 O4        -10.6023    1.7771   58.3748 O.2     1  ZINC000550782577   -0.5400
      5 C5         -8.4207    2.2385   59.0761 C.ar    1  ZINC000550782577    0.0300
      6 C6         -8.1857    3.0922   60.1531 C.ar    1  ZINC000550782577   -0.0600
      7 C7         -7.0294    3.8518   60.1705 C.ar    1  ZINC000550782577   -0.1200
      8 C8         -6.1415    3.7326   59.1052 C.ar    1  ZINC000550782577    0.1100
      9 O9         -4.9953    4.4589   59.0823 O.3     1  ZINC000550782577   -0.3000
     10 C10        -4.1151    4.2472   57.9766 C.3     1  ZINC000550782577    0.1000
     11 C11        -4.8491    4.5652   56.6724 C.3     1  ZINC000550782577   -0.2000
     12 C12        -2.8966    5.1625   58.1122 C.3     1  ZINC000550782577   -0.1400
     13 C13        -3.6573    2.7874   57.9613 C.3     1  ZINC000550782577   -0.2000
     14 C14        -6.4429    2.8589   58.0632 C.ar    1  ZINC000550782577   -0.0100
     15 N15        -7.5470    2.1477   58.0798 N.ar    1  ZINC000550782577   -0.4100
     16 C16       -10.9445   -0.5283   59.7313 C.3     1  ZINC000550782577    0.1400
     17 H17       -10.9393   -1.2311   60.5644 H       1  ZINC000550782577    0.1100
     18 C18       -12.1720    0.3845   59.8334 C.3     1  ZINC000550782577   -0.1300
     19 C19       -13.4070   -0.4900   60.0406 C.3     1  ZINC000550782577   -0.0800
     20 C20       -13.4641   -1.5799   59.0024 C.ar    1  ZINC000550782577   -0.0800
     21 C21       -14.6806   -2.2188   58.8019 C.ar    1  ZINC000550782577   -0.1200
     22 C22       -14.7966   -3.2292   57.8695 C.ar    1  ZINC000550782577   -0.1200
     23 C23       -13.6932   -3.6097   57.1290 C.ar    1  ZINC000550782577   -0.1200
     24 C24       -12.4842   -2.9745   57.3251 C.ar    1  ZINC000550782577   -0.1200
     25 C25       -12.3662   -1.9549   58.2605 C.ar    1  ZINC000550782577   -0.0700
     26 C26       -11.0208   -1.2948   58.4124 C.3     1  ZINC000550782577   -0.0900
     27 H27        -8.6038    0.3624   61.5329 H       1  ZINC000550782577    0.0600
     28 H28        -8.6307   -1.2251   60.7283 H       1  ZINC000550782577    0.0600
     29 H29        -7.6544    0.0998   60.0504 H       1  ZINC000550782577    0.1100
     30 H30        -8.8969    3.1598   60.9630 H       1  ZINC000550782577    0.1600
     31 H31        -6.8207    4.5220   60.9914 H       1  ZINC000550782577    0.1500
     32 H32        -4.8090    5.6382   56.4851 H       1  ZINC000550782577    0.0700
     33 H33        -4.3722    4.0345   55.8484 H       1  ZINC000550782577    0.0800
     34 H34        -5.8892    4.2494   56.7544 H       1  ZINC000550782577    0.0800
     35 H35        -2.3737    4.9359   59.0414 H       1  ZINC000550782577    0.0700
     36 H36        -2.2253    5.0010   57.2687 H       1  ZINC000550782577    0.0800
     37 H37        -3.2227    6.2025   58.1231 H       1  ZINC000550782577    0.0700
     38 H38        -4.5250    2.1356   57.8600 H       1  ZINC000550782577    0.0800
     39 H39        -2.9823    2.6271   57.1206 H       1  ZINC000550782577    0.0800
     40 H40        -3.1385    2.5596   58.8924 H       1  ZINC000550782577    0.0700
     41 H41        -5.7582    2.7618   57.2337 H       1  ZINC000550782577    0.1900
     42 H42       -12.0562    1.0623   60.6791 H       1  ZINC000550782577    0.0700
     43 H43       -12.2795    0.9594   58.9136 H       1  ZINC000550782577    0.0700
     44 H44       -13.3664   -0.9400   61.0325 H       1  ZINC000550782577    0.0800
     45 H45       -14.3018    0.1276   59.9630 H       1  ZINC000550782577    0.0800
     46 H46       -15.5429   -1.9227   59.3808 H       1  ZINC000550782577    0.1200
     47 H47       -15.7461   -3.7212   57.7189 H       1  ZINC000550782577    0.1200
     48 H48       -13.7771   -4.4018   56.3996 H       1  ZINC000550782577    0.1200
     49 H49       -11.6225   -3.2727   56.7463 H       1  ZINC000550782577    0.1200
     50 H50       -10.8647   -0.6022   57.5852 H       1  ZINC000550782577    0.0800
     51 H51       -10.2421   -2.0573   58.3937 H       1  ZINC000550782577    0.0800
@<TRIPOS>BOND
     1     1     2    1
     2     1    27    1
     3     1    28    1
     4     1    29    1
     5     2     3   am
     6     2    16    1
     7     3     4    2
     8     3     5    1
     9     5    15   ar
    10     5     6   ar
    11     6     7   ar
    12     6    30    1
    13     7     8   ar
    14     7    31    1
    15     8     9    1
    16     8    14   ar
    17     9    10    1
    18    10    11    1
    19    10    12    1
    20    10    13    1
    21    11    32    1
    22    11    33    1
    23    11    34    1
    24    12    35    1
    25    12    36    1
    26    12    37    1
    27    13    38    1
    28    13    39    1
    29    13    40    1
    30    14    15   ar
    31    14    41    1
    32    16    17    1
    33    16    26    1
    34    16    18    1
    35    18    19    1
    36    18    42    1
    37    18    43    1
    38    19    20    1
    39    19    44    1
    40    19    45    1
    41    20    25   ar
    42    20    21   ar
    43    21    22   ar
    44    21    46    1
    45    22    23   ar
    46    22    47    1
    47    23    24   ar
    48    23    48    1
    49    24    25   ar
    50    24    49    1
    51    25    26    1
    52    26    50    1
    53    26    51    1
@<TRIPOS>SUBSTRUCTURE
     1 ZINC000550782577        1 TEMP              0 ****  ****    0 ROOT


##########                                Name:    ZINC000055987960
##########                DOCK_Rotatable_Bonds:                   6
##########                         Heavy_Atoms:                  28
##########                    Molecular_Weight:             404.868
##########                DOCK_Rotatable_Bonds:                   6
##########                       Formal_Charge:          0.00999941
##########                     HBond_Acceptors:                   7
##########                        HBond_Donors:                   1
##########                         Heavy_Atoms:                  28
##########                          Grid_Score:          -22.128998
##########                     Grid_vdw_energy:          -21.869207
##########                      Grid_es_energy:           -0.259790
##########           Internal_energy_repulsive:           14.664989

@<TRIPOS>MOLECULE
ZINC000055987960
 50 52 1 0 0
SMALL
USER_CHARGES


@<TRIPOS>ATOM
      1 C1         -6.0636    2.3890   52.1658 C.3     1  ZINC000055987960   -0.1800
      2 C2         -7.3836    2.9589   51.6427 C.3     1  ZINC000055987960    0.0700
      3 H3         -7.2330    3.3675   50.6434 H       1  ZINC000055987960    0.1200
      4 C4         -8.4357    1.8454   51.5873 C.3     1  ZINC000055987960    0.0800
      5 N5         -8.7557    1.4403   52.9653 N.am    1  ZINC000055987960   -0.6100
      6 C6         -8.7355    0.1429   53.3295 C.2     1  ZINC000055987960    0.5700
      7 O7         -8.4501   -0.7129   52.5143 O.2     1  ZINC000055987960   -0.5300
      8 C8         -9.0602   -0.2392   54.7177 C.ar    1  ZINC000055987960   -0.1500
      9 C9        -10.2695   -0.8786   55.0034 C.ar    1  ZINC000055987960   -0.0700
     10 C10       -10.5690   -1.2340   56.2993 C.ar    1  ZINC000055987960   -0.1500
     11 C11        -9.6693   -0.9573   57.3239 C.ar    1  ZINC000055987960    0.1700
     12 N12        -9.9756   -1.3190   58.6351 N.am    1  ZINC000055987960   -0.6700
     13 C13       -10.1164   -0.3691   59.5809 C.2     1  ZINC000055987960    0.5200
     14 O14        -9.9766    0.8003   59.2914 O.2     1  ZINC000055987960   -0.5000
     15 C15       -10.4475   -0.7600   60.9982 C.3     1  ZINC000055987960   -0.1100
     16 C16       -10.7418    0.4782   61.8051 C.ar    1  ZINC000055987960   -0.1000
     17 C17        -9.7048    1.1947   62.3771 C.ar    1  ZINC000055987960    0.1300
     18 F18        -8.4282    0.7842   62.2123 F       1  ZINC000055987960   -0.1300
     19 C19        -9.9766    2.3327   63.1180 C.ar    1  ZINC000055987960   -0.1500
     20 C20       -11.2823    2.7524   63.2859 C.ar    1  ZINC000055987960   -0.0700
     21 C21       -12.3182    2.0368   62.7146 C.ar    1  ZINC000055987960   -0.1200
     22 C22       -12.0481    0.9027   61.9698 C.ar    1  ZINC000055987960    0.0000
     23 Cl23      -13.3495    0.0053   61.2523 Cl      1  ZINC000055987960   -0.0500
     24 C24        -8.4644   -0.3208   57.0428 C.ar    1  ZINC000055987960   -0.1200
     25 C25        -8.1564    0.0326   55.7484 C.ar    1  ZINC000055987960   -0.0500
     26 C26        -9.0978    2.4938   53.9341 C.3     1  ZINC000055987960    0.0600
     27 C27        -8.0133    3.5756   53.8752 C.3     1  ZINC000055987960    0.0700
     28 H28        -7.0752    3.1718   54.2559 H       1  ZINC000055987960    0.0700
     29 C29        -8.4384    4.7724   54.7283 C.3     1  ZINC000055987960   -0.1500
     30 O30        -7.8374    3.9937   52.5183 O.3     1  ZINC000055987960   -0.3700
     31 H31        -6.2148    1.9806   53.1651 H       1  ZINC000055987960    0.0600
     32 H32        -5.7190    1.5989   51.4986 H       1  ZINC000055987960    0.0700
     33 H33        -5.3164    3.1816   52.2066 H       1  ZINC000055987960    0.0700
     34 H34        -9.3354    2.2146   51.0949 H       1  ZINC000055987960    0.0800
     35 H35        -8.0391    0.9925   51.0367 H       1  ZINC000055987960    0.1000
     36 H36       -10.9684   -1.0935   54.2087 H       1  ZINC000055987960    0.1400
     37 H37       -11.5036   -1.7279   56.5209 H       1  ZINC000055987960    0.1300
     38 H38       -10.0873   -2.2543   58.8668 H       1  ZINC000055987960    0.4200
     39 H39       -11.3215   -1.4115   61.0006 H       1  ZINC000055987960    0.1200
     40 H40        -9.6003   -1.2870   61.4371 H       1  ZINC000055987960    0.1200
     41 H41        -9.1679    2.8920   63.5649 H       1  ZINC000055987960    0.1500
     42 H42       -11.4939    3.6397   63.8641 H       1  ZINC000055987960    0.1500
     43 H43       -13.3384    2.3654   62.8468 H       1  ZINC000055987960    0.1400
     44 H44        -7.7684   -0.1070   57.8405 H       1  ZINC000055987960    0.1500
     45 H45        -7.2210    0.5266   55.5308 H       1  ZINC000055987960    0.1300
     46 H46       -10.0641    2.9282   53.6780 H       1  ZINC000055987960    0.0800
     47 H47        -9.1396    2.0702   54.9375 H       1  ZINC000055987960    0.1100
     48 H48        -8.5755    4.4520   55.7610 H       1  ZINC000055987960    0.0700
     49 H49        -7.6668    5.5412   54.6858 H       1  ZINC000055987960    0.0700
     50 H50        -9.3756    5.1767   54.3457 H       1  ZINC000055987960    0.0700
@<TRIPOS>BOND
     1     1     2    1
     2     1    31    1
     3     1    32    1
     4     1    33    1
     5     2     3    1
     6     2    30    1
     7     2     4    1
     8     4     5    1
     9     4    34    1
    10     4    35    1
    11     5     6   am
    12     5    26    1
    13     6     7    2
    14     6     8    1
    15     8    25   ar
    16     8     9   ar
    17     9    10   ar
    18     9    36    1
    19    10    11   ar
    20    10    37    1
    21    11    12    1
    22    11    24   ar
    23    12    13   am
    24    12    38    1
    25    13    14    2
    26    13    15    1
    27    15    16    1
    28    15    39    1
    29    15    40    1
    30    16    22   ar
    31    16    17   ar
    32    17    18    1
    33    17    19   ar
    34    19    20   ar
    35    19    41    1
    36    20    21   ar
    37    20    42    1
    38    21    22   ar
    39    21    43    1
    40    22    23    1
    41    24    25   ar
    42    24    44    1
    43    25    45    1
    44    26    27    1
    45    26    46    1
    46    26    47    1
    47    27    28    1
    48    27    29    1
    49    27    30    1
    50    29    48    1
    51    29    49    1
    52    29    50    1
@<TRIPOS>SUBSTRUCTURE
     1 ZINC000055987960        1 TEMP              0 ****  ****    0 ROOT


##########                                Name:    ZINC000569288350
##########                DOCK_Rotatable_Bonds:                   3
##########                         Heavy_Atoms:                  19
##########                    Molecular_Weight:             393.559
##########                DOCK_Rotatable_Bonds:                   3
##########                       Formal_Charge:           0.0299999
##########                     HBond_Acceptors:                   5
##########                        HBond_Donors:                   1
##########                         Heavy_Atoms:                  19
##########                          Grid_Score:          -20.398169
##########                     Grid_vdw_energy:          -20.976994
##########                      Grid_es_energy:            0.578825
##########           Internal_energy_repulsive:           18.158165

@<TRIPOS>MOLECULE
ZINC000569288350
 26 27 1 0 0
SMALL
USER_CHARGES


@<TRIPOS>ATOM
      1 O1         -5.2307    2.3033   49.3028 O.2     1  ZINC000569288350   -0.4800
      2 C2         -4.5917    2.2957   50.3372 C.2     1  ZINC000569288350    0.5700
      3 N3         -5.2230    2.1435   51.5182 N.am    1  ZINC000569288350   -0.6600
      4 C4         -6.6143    1.9999   51.5543 C.ar    1  ZINC000569288350    0.1800
      5 C5         -7.1798    0.8157   52.0078 C.ar    1  ZINC000569288350   -0.1200
      6 C6         -8.5538    0.6756   52.0428 C.ar    1  ZINC000569288350   -0.0600
      7 C7         -9.3674    1.7126   51.6263 C.ar    1  ZINC000569288350   -0.1500
      8 C8         -8.8084    2.8961   51.1730 C.ar    1  ZINC000569288350    0.1300
      9 F9         -9.6061    3.9080   50.7672 F       1  ZINC000569288350   -0.1200
     10 C10        -7.4327    3.0443   51.1416 C.ar    1  ZINC000569288350   -0.1000
     11 Cl11       -6.7307    4.5272   50.5743 Cl      1  ZINC000569288350   -0.0400
     12 C12        -3.1237    2.4471   50.2992 C.ar    1  ZINC000569288350   -0.1400
     13 C13        -2.3392    1.5199   49.6057 C.ar    1  ZINC000569288350    0.1400
     14 F14        -2.9223    0.4818   48.9673 F       1  ZINC000569288350   -0.1200
     15 C15        -0.9647    1.6695   49.5753 C.ar    1  ZINC000569288350   -0.1300
     16 C16        -0.3674    2.7314   50.2283 C.ar    1  ZINC000569288350   -0.0600
     17 C17        -1.1385    3.6521   50.9167 C.ar    1  ZINC000569288350   -0.0900
     18 C18        -2.5111    3.5207   50.9509 C.ar    1  ZINC000569288350   -0.0500
     19 I19        -3.6738    4.9169   51.9941 I       1  ZINC000569288350    0.0000
     20 H20        -4.7128    2.1334   52.3431 H       1  ZINC000569288350    0.4200
     21 H21        -6.5457    0.0040   52.3329 H       1  ZINC000569288350    0.1600
     22 H22        -8.9930   -0.2459   52.3956 H       1  ZINC000569288350    0.1500
     23 H23       -10.4412    1.5997   51.6542 H       1  ZINC000569288350    0.1500
     24 H24        -0.3566    0.9549   49.0405 H       1  ZINC000569288350    0.1500
     25 H25         0.7064    2.8431   50.2015 H       1  ZINC000569288350    0.1500
     26 H26        -0.6641    4.4789   51.4245 H       1  ZINC000569288350    0.1500
@<TRIPOS>BOND
     1     1     2    2
     2     2     3   am
     3     2    12    1
     4     3     4    1
     5     3    20    1
     6     4    10   ar
     7     4     5   ar
     8     5     6   ar
     9     5    21    1
    10     6     7   ar
    11     6    22    1
    12     7     8   ar
    13     7    23    1
    14     8     9    1
    15     8    10   ar
    16    10    11    1
    17    12    18   ar
    18    12    13   ar
    19    13    14    1
    20    13    15   ar
    21    15    16   ar
    22    15    24    1
    23    16    17   ar
    24    16    25    1
    25    17    18   ar
    26    17    26    1
    27    18    19    1
@<TRIPOS>SUBSTRUCTURE
     1 ZINC000569288350        1 TEMP              0 ****  ****    0 ROOT


##########                                Name:    ZINC000482962466
##########                DOCK_Rotatable_Bonds:                   2
##########                         Heavy_Atoms:                  25
##########                    Molecular_Weight:             404.303
##########                DOCK_Rotatable_Bonds:                   2
##########                       Formal_Charge:           0.0200002
##########                     HBond_Acceptors:                   4
##########                        HBond_Donors:                   0
##########                         Heavy_Atoms:                  25
##########                          Grid_Score:          -19.000090
##########                     Grid_vdw_energy:          -18.851595
##########                      Grid_es_energy:           -0.148494
##########           Internal_energy_repulsive:            7.687045

@<TRIPOS>MOLECULE
ZINC000482962466
 47 50 1 0 0
SMALL
USER_CHARGES


@<TRIPOS>ATOM
      1 C1        -12.0199   -2.3411   59.5212 C.3     1  ZINC000482962466   -0.1400
      2 C2        -11.5715   -0.9969   58.9442 C.3     1  ZINC000482962466    0.0700
      3 H3        -10.4851   -0.9821   58.8578 H       1  ZINC000482962466    0.0700
      4 C4        -12.0271    0.1359   59.8711 C.3     1  ZINC000482962466    0.0800
      5 N5        -11.7511    1.4196   59.2070 N.am    1  ZINC000482962466   -0.6100
      6 C6        -11.0875    2.4032   59.8463 C.2     1  ZINC000482962466    0.5600
      7 O7        -10.8693    3.4567   59.2803 O.2     1  ZINC000482962466   -0.5200
      8 C8        -10.6252    2.2010   61.2351 C.ar    1  ZINC000482962466   -0.1100
      9 C9        -11.2562    2.8879   62.2875 C.ar    1  ZINC000482962466   -0.0700
     10 C10       -10.8498    2.7188   63.5715 C.ar    1  ZINC000482962466   -0.1000
     11 C11        -9.7846    1.8475   63.8637 C.ar    1  ZINC000482962466   -0.0400
     12 C12        -9.3466    1.6564   65.1845 C.ar    1  ZINC000482962466   -0.0700
     13 C13        -8.3127    0.8059   65.4367 C.ar    1  ZINC000482962466   -0.0800
     14 Br14       -7.7282    0.5526   67.2171 Br      1  ZINC000482962466   -0.0400
     15 C15        -7.6790    0.1188   64.4015 C.ar    1  ZINC000482962466   -0.1000
     16 C16        -8.0756    0.2790   63.1099 C.ar    1  ZINC000482962466   -0.0900
     17 C17        -9.1402    1.1486   62.8109 C.ar    1  ZINC000482962466   -0.0500
     18 C18        -9.5773    1.3319   61.4910 C.ar    1  ZINC000482962466   -0.0700
     19 C19       -12.2217    1.5978   57.8239 C.3     1  ZINC000482962466    0.0700
     20 C20       -11.7594    0.3935   56.9977 C.3     1  ZINC000482962466    0.0800
     21 C21       -12.3953    0.4546   55.6066 C.3     1  ZINC000482962466   -0.1100
     22 C22       -11.8642   -0.7088   54.7631 C.3     1  ZINC000482962466   -0.1500
     23 C23       -10.3360   -0.6341   54.7101 C.3     1  ZINC000482962466    0.0600
     24 O24        -9.8115   -0.6662   56.0390 O.3     1  ZINC000482962466   -0.3700
     25 C25       -10.2359    0.4241   56.8598 C.3     1  ZINC000482962466    0.0400
     26 O26       -12.1559   -0.8129   57.6523 O.3     1  ZINC000482962466   -0.3500
     27 H27       -11.6973   -3.1458   58.8606 H       1  ZINC000482962466    0.0700
     28 H28       -11.5756   -2.4798   60.5068 H       1  ZINC000482962466    0.0800
     29 H29       -13.1064   -2.3553   59.6072 H       1  ZINC000482962466    0.0700
     30 H30       -13.0960    0.0448   60.0640 H       1  ZINC000482962466    0.0800
     31 H31       -11.4783    0.0837   60.8115 H       1  ZINC000482962466    0.1000
     32 H32       -12.0745    3.5588   62.0713 H       1  ZINC000482962466    0.1400
     33 H33       -11.3441    3.2537   64.3691 H       1  ZINC000482962466    0.1400
     34 H34        -9.8270    2.1818   65.9966 H       1  ZINC000482962466    0.1400
     35 H35        -6.8618   -0.5498   64.6284 H       1  ZINC000482962466    0.1400
     36 H36        -7.5756   -0.2589   62.3181 H       1  ZINC000482962466    0.1400
     37 H37        -9.0980    0.8031   60.6804 H       1  ZINC000482962466    0.1400
     38 H38       -13.3102    1.6559   57.8110 H       1  ZINC000482962466    0.0900
     39 H39       -11.7997    2.5125   57.4075 H       1  ZINC000482962466    0.1000
     40 H40       -13.4785    0.3747   55.6970 H       1  ZINC000482962466    0.0800
     41 H41       -12.1366    1.3994   55.1286 H       1  ZINC000482962466    0.0800
     42 H42       -12.1673   -1.6538   55.2141 H       1  ZINC000482962466    0.0800
     43 H43       -12.2675   -0.6402   53.7528 H       1  ZINC000482962466    0.0800
     44 H44        -9.9500   -1.4835   54.1465 H       1  ZINC000482962466    0.1000
     45 H45       -10.0342    0.2928   54.2226 H       1  ZINC000482962466    0.0500
     46 H46        -9.9312    1.3647   56.4011 H       1  ZINC000482962466    0.0600
     47 H47        -9.7798    0.3357   57.8459 H       1  ZINC000482962466    0.1000
@<TRIPOS>BOND
     1     1     2    1
     2     1    27    1
     3     1    28    1
     4     1    29    1
     5     2     3    1
     6     2    26    1
     7     2     4    1
     8     4     5    1
     9     4    30    1
    10     4    31    1
    11     5     6   am
    12     5    19    1
    13     6     7    2
    14     6     8    1
    15     8    18   ar
    16     8     9   ar
    17     9    10   ar
    18     9    32    1
    19    10    11   ar
    20    10    33    1
    21    11    17   ar
    22    11    12   ar
    23    12    13   ar
    24    12    34    1
    25    13    14    1
    26    13    15   ar
    27    15    16   ar
    28    15    35    1
    29    16    17   ar
    30    16    36    1
    31    17    18   ar
    32    18    37    1
    33    19    20    1
    34    19    38    1
    35    19    39    1
    36    20    25    1
    37    20    21    1
    38    20    26    1
    39    21    22    1
    40    21    40    1
    41    21    41    1
    42    22    23    1
    43    22    42    1
    44    22    43    1
    45    23    24    1
    46    23    44    1
    47    23    45    1
    48    24    25    1
    49    25    46    1
    50    25    47    1
@<TRIPOS>SUBSTRUCTURE
     1 ZINC000482962466        1 TEMP              0 ****  ****    0 ROOT


##########                                Name:    ZINC000653668607
##########                DOCK_Rotatable_Bonds:                   5
##########                         Heavy_Atoms:                  28
##########                    Molecular_Weight:             379.459
##########                DOCK_Rotatable_Bonds:                   5
##########                       Formal_Charge:          0.00999918
##########                     HBond_Acceptors:                   6
##########                        HBond_Donors:                   2
##########                         Heavy_Atoms:                  28
##########                          Grid_Score:          -18.847101
##########                     Grid_vdw_energy:          -18.585930
##########                      Grid_es_energy:           -0.261172
##########           Internal_energy_repulsive:            8.837369

@<TRIPOS>MOLECULE
ZINC000653668607
 53 56 1 0 0
SMALL
USER_CHARGES


@<TRIPOS>ATOM
      1 C1        -13.5698   -2.2075   57.0889 C.3     1  ZINC000653668607    0.0300
      2 O2        -12.2667   -2.7897   57.0172 O.3     1  ZINC000653668607   -0.3200
      3 C3        -11.2950   -2.2232   57.7800 C.ar    1  ZINC000653668607    0.1300
      4 C4        -10.6425   -2.9729   58.7477 C.ar    1  ZINC000653668607   -0.2000
      5 C5         -9.6561   -2.3893   59.5142 C.ar    1  ZINC000653668607   -0.0800
      6 C6         -9.3093   -1.0574   59.3268 C.ar    1  ZINC000653668607   -0.1000
      7 C7         -8.2125   -0.4911   60.1906 C.3     1  ZINC000653668607   -0.0800
      8 C8         -8.2490    1.0357   60.1730 C.3     1  ZINC000653668607   -0.1200
      9 C9         -8.2801    1.5021   58.7127 C.3     1  ZINC000653668607   -0.1100
     10 C10        -9.6410    1.1417   58.1207 C.3     1  ZINC000653668607   -0.0600
     11 H11       -10.4092    1.7628   58.5813 H       1  ZINC000653668607    0.1000
     12 C12        -9.6202    1.3968   56.6356 C.2     1  ZINC000653668607    0.5200
     13 O13        -8.7982    0.8429   55.9366 O.2     1  ZINC000653668607   -0.5100
     14 N14       -10.5150    2.2404   56.0841 N.am    1  ZINC000653668607   -0.6700
     15 C15       -10.4957    2.4773   54.7053 C.ar    1  ZINC000653668607    0.1500
     16 C16        -9.3869    3.0729   54.1176 C.ar    1  ZINC000653668607   -0.1100
     17 C17        -9.3672    3.3072   52.7559 C.ar    1  ZINC000653668607   -0.0900
     18 C18       -10.4492    2.9502   51.9749 C.ar    1  ZINC000653668607   -0.1200
     19 C19       -11.5614    2.3545   52.5567 C.ar    1  ZINC000653668607    0.1700
     20 N20       -12.6573    1.9935   51.7649 N.am    1  ZINC000653668607   -0.5800
     21 C21       -12.9990    0.5780   51.6159 C.3     1  ZINC000653668607    0.1100
     22 C22       -14.5072    0.4471   51.3781 C.3     1  ZINC000653668607   -0.1500
     23 C23       -14.8863    1.3048   50.1662 C.3     1  ZINC000653668607    0.1100
     24 N24       -14.4422    2.6809   50.3939 N.am    1  ZINC000653668607   -0.7400
     25 C25       -13.3767    2.9521   51.1623 C.2     1  ZINC000653668607    0.7100
     26 O26       -13.0437    4.1121   51.3104 O.2     1  ZINC000653668607   -0.5800
     27 C27       -11.5818    2.1122   53.9225 C.ar    1  ZINC000653668607   -0.1300
     28 C28        -9.9598   -0.3093   58.3703 C.ar    1  ZINC000653668607   -0.0300
     29 C29       -10.9473   -0.8962   57.5915 C.ar    1  ZINC000653668607   -0.1500
     30 H30       -13.9350   -2.2595   58.1146 H       1  ZINC000653668607    0.0600
     31 H31       -13.5201   -1.1654   56.7733 H       1  ZINC000653668607    0.0600
     32 H32       -14.2483   -2.7537   56.4335 H       1  ZINC000653668607    0.1000
     33 H33       -10.9062   -4.0089   58.9004 H       1  ZINC000653668607    0.1300
     34 H34        -9.1485   -2.9733   60.2677 H       1  ZINC000653668607    0.1300
     35 H35        -8.3439   -0.8419   61.2142 H       1  ZINC000653668607    0.0800
     36 H36        -7.2475   -0.8319   59.8155 H       1  ZINC000653668607    0.0800
     37 H37        -9.1419    1.3876   60.6897 H       1  ZINC000653668607    0.0700
     38 H38        -7.3600    1.4298   60.6653 H       1  ZINC000653668607    0.0800
     39 H39        -8.1349    2.5815   58.6690 H       1  ZINC000653668607    0.0700
     40 H40        -7.4912    1.0021   58.1507 H       1  ZINC000653668607    0.0800
     41 H41       -11.1724    2.6834   56.6431 H       1  ZINC000653668607    0.4100
     42 H42        -8.5396    3.3535   54.7256 H       1  ZINC000653668607    0.1400
     43 H43        -8.5041    3.7708   52.3014 H       1  ZINC000653668607    0.1300
     44 H44       -10.4307    3.1346   50.9109 H       1  ZINC000653668607    0.1200
     45 H45       -12.4587    0.1604   50.7664 H       1  ZINC000653668607    0.0700
     46 H46       -12.7252    0.0398   52.5233 H       1  ZINC000653668607    0.0900
     47 H47       -14.7577   -0.5953   51.1816 H       1  ZINC000653668607    0.1000
     48 H48       -15.0481    0.7968   52.2576 H       1  ZINC000653668607    0.0800
     49 H49       -14.4018    0.9086   49.2737 H       1  ZINC000653668607    0.0700
     50 H50       -15.9679    1.2885   50.0323 H       1  ZINC000653668607    0.0900
     51 H51       -14.9306    3.4119   49.9838 H       1  ZINC000653668607    0.4200
     52 H52       -12.4451    1.6490   54.3770 H       1  ZINC000653668607    0.1300
     53 H53       -11.4519   -0.3121   56.8361 H       1  ZINC000653668607    0.1200
@<TRIPOS>BOND
     1     1     2    1
     2     1    30    1
     3     1    31    1
     4     1    32    1
     5     2     3    1
     6     3    29   ar
     7     3     4   ar
     8     4     5   ar
     9     4    33    1
    10     5     6   ar
    11     5    34    1
    12     6    28   ar
    13     6     7    1
    14     7     8    1
    15     7    35    1
    16     7    36    1
    17     8     9    1
    18     8    37    1
    19     8    38    1
    20     9    10    1
    21     9    39    1
    22     9    40    1
    23    10    11    1
    24    10    12    1
    25    10    28    1
    26    12    13    2
    27    12    14   am
    28    14    15    1
    29    14    41    1
    30    15    27   ar
    31    15    16   ar
    32    16    17   ar
    33    16    42    1
    34    17    18   ar
    35    17    43    1
    36    18    19   ar
    37    18    44    1
    38    19    20    1
    39    19    27   ar
    40    20    25   am
    41    20    21    1
    42    21    22    1
    43    21    45    1
    44    21    46    1
    45    22    23    1
    46    22    47    1
    47    22    48    1
    48    23    24    1
    49    23    49    1
    50    23    50    1
    51    24    25   am
    52    24    51    1
    53    25    26    2
    54    27    52    1
    55    28    29   ar
    56    29    53    1
@<TRIPOS>SUBSTRUCTURE
     1 ZINC000653668607        1 TEMP              0 ****  ****    0 ROOT

